44
-1.5049131457129483e+03 frame 50   xyz file generated by TeraChem
     O     2.3894743931   -0.6966496705   -1.4179830911
     C     3.0414952314   -1.4128789145   -0.6812974703
     C     2.4695508258   -2.5883852094    0.0285300005
     C     3.2438358799   -3.3876384209    0.7708824357
     C     0.9992230575   -2.7983631648   -0.1712879933
     O     4.3456966202   -1.2154556044   -0.4275224026
     C     4.9712948555   -0.1163294359   -1.0975903891
     C     5.4348289426   -0.5040704354   -2.4796432378
     O     6.4246737260   -1.5128888766   -2.3306468392
     C     6.9791179914   -2.0490343356   -3.4378507095
     C     6.6665831897   -1.6727103865   -4.7496196265
     C     7.3061927612   -2.2968397510   -5.8127703562
     C     8.2625840293   -3.2984171880   -5.6009603248
     C     8.5652713922   -3.6631498992   -4.2790492466
     C     7.9346973631   -3.0498875388   -3.2130596649
     C     8.9137925640   -3.9306216929   -6.7428026107
     N     8.6551423444   -3.6287021912   -7.9916416351
     N     9.3759094457   -4.3395931670   -8.8825967330
     C    10.1980683768   -5.1967614109   -8.3343145591
     S    10.1260832925   -5.1737909416   -6.5933264730
     C    11.0833268363   -6.0782920796   -9.0961703191
     C    11.9290815615   -6.9936394775   -8.4565704529
     C    12.7629847756   -7.8199593962   -9.2020025967
     C    12.7628139394   -7.7434168685  -10.5934894384
     C    11.9222734804   -6.8346456032  -11.2371121780
     C    11.0874405990   -6.0064325267  -10.4976549790
     H     4.3072969423   -3.2071553162    0.8873031772
     H     2.8236881089   -4.2514937870    1.2796478623
     H     0.4282363954   -1.9273455162    0.1699565342
     H     0.6574660920   -3.6787773505    0.3788171511
     H     0.7636690270   -2.9339514483   -1.2328749718
     H     5.8224939241    0.1541691529   -0.4697406451
     H     4.2777784958    0.7250403171   -1.1663005859
     H     5.8555999710    0.3780025819   -2.9799067598
     H     4.5939993336   -0.8787116153   -3.0752117823
     H     5.9335446697   -0.8999494773   -4.9534048734
     H     7.0626625017   -2.0034838146   -6.8289509153
     H     9.3014671899   -4.4365989041   -4.0741281700
     H     8.1671147498   -3.3315476536   -2.1905390288
     H    11.9396662494   -7.0666192009   -7.3716006122
     H    13.4135023688   -8.5250863798   -8.6923981297
     H    13.4150278193   -8.3893331848  -11.1748669472
     H    11.9174563302   -6.7702531807  -12.3217535639
     H    10.4329247559   -5.2975250202  -10.9945355250
