28
-2.0403453290140660e+03 frame 23   xyz file generated by TeraChem
    Cl    -2.7877123551   -1.1328025398   -0.2776704604
     C    -1.3765356374   -0.1380344159   -0.0574120087
     C    -1.4717382456    1.2340776101   -0.1739829573
     C    -0.3302168170    2.0329473221    0.0045126394
     C    -0.4571746013    3.4637937364   -0.1244827845
     N     0.5672383355    4.2417205897    0.0287075356
     C     0.4057202104    5.6057057647   -0.0960936030
     N    -0.7014042290    6.2471656341   -0.3101829118
     C    -0.4703039441    7.6024724791   -0.3756426430
     C     0.8778255641    7.9991315862   -0.2014410771
     S     1.8571842167    6.5862364056    0.0541796564
     C     1.2573469384    9.3401226160   -0.2459356245
     C     0.2673399260   10.2887195503   -0.4677098803
     C    -1.0742853106    9.9107238799   -0.6409267406
     C    -1.4520684169    8.5782169289   -0.5967376542
     C     0.9217833659    1.4349496954    0.3047760026
     C     0.9739772352    0.0346482295    0.4127632837
     C    -0.1546628145   -0.7485801048    0.2361582559
    Cl     2.4941975039   -0.7154356364    0.7747292885
     O     2.0288060169    2.1429355222    0.4849360696
     H    -2.4217816834    1.7073988940   -0.4030848521
     H    -1.4454915938    3.8693789344   -0.3567755307
     H     2.2938069547    9.6340537398   -0.1108650882
     H     0.5373657005   11.3402205531   -0.5069711369
     H    -1.8261423836   10.6758356821   -0.8123810114
     H    -2.4867958839    8.2765554591   -0.7302577355
     H    -0.0837585975   -1.8273932301    0.3260031624
     H     1.7859088992    3.1080505494    0.3629274420
