45
-1.6015351718123593e+03 frame 58   xyz file generated by TeraChem
     C     1.2496005084   -1.2067506443   -3.2460590534
     C    -0.0416471378   -0.7985104508   -2.5974188384
     C    -0.5081257051    0.5205600703   -2.6768674531
     C    -1.7054033083    0.8995082149   -2.0871401800
     C    -2.4872964809   -0.0357542668   -1.3883922382
     C    -2.0173030410   -1.3579622781   -1.3074401467
     C    -0.8192080933   -1.7308812713   -1.8998999301
     C    -3.7511451179    0.2943407299   -0.7494845797
     C    -4.3777651194    1.4885862536   -0.7266468324
     C    -5.6634668810    1.6320067464   -0.0312441896
     O    -6.2174116980    0.7052910943    0.5623612198
     C    -6.2921706669    2.9639972666   -0.0783684047
     N    -5.7318508669    4.0277502560   -0.7231607978
     N    -6.5036522941    5.0513111099   -0.6243543185
     N    -7.5912034032    4.6661987073    0.0954519014
     C    -7.5075382427    3.3659998885    0.4628787316
     C    -8.5442237528    2.6477146955    1.2435119709
     C    -8.6171426328    5.6048640756    0.3825567797
     C    -8.9122151197    5.9157617562    1.6849783261
     C    -9.9334391334    6.8596086167    1.9321297020
     N   -10.6179114457    7.4711130764    0.9921227799
     C   -10.3332486714    7.1637902480   -0.3025271540
     C    -9.3333301203    6.2172028067   -0.6791379248
     C    -9.1292193623    5.9330060073   -2.0506511056
     C    -9.8715462283    6.5701767480   -3.0134021590
     C   -10.8446516299    7.5179976364   -2.6280252141
     C   -11.0826258956    7.8165207957   -1.3109249908
    Cl   -11.7641689652    8.3145485242   -3.8725663778
     H     1.7960774209   -0.3398060001   -3.6282140796
     H     1.0677948386   -1.8876857583   -4.0868614986
     H     1.8964540237   -1.7379810738   -2.5387060533
     H     0.0830217740    1.2612249226   -3.2106675087
     H    -2.0332783176    1.9321419062   -2.1693779727
     H    -2.6075698398   -2.0965614050   -0.7694390177
     H    -0.4778334926   -2.7606814288   -1.8207238102
     H    -4.2469818619   -0.5278008249   -0.2325308724
     H    -3.9720637694    2.3699156294   -1.2131589785
     H    -9.5487326726    2.9758093460    0.9608611744
     H    -8.4179625242    2.8324928081    2.3166597838
     H    -8.4409581664    1.5759886653    1.0731079181
     H    -8.3673834061    5.4663597968    2.5084795081
     H   -10.1757524226    7.1177127151    2.9613788312
     H    -8.3791150349    5.2066785732   -2.3444790828
     H    -9.7188921138    6.3513751463   -4.0650578348
     H   -11.8354244190    8.5384194533   -1.0130360229
