46
-1.4698289722823938e+03 frame 28   xyz file generated by TeraChem
     C     1.1361977264   -0.5575016867    0.5334199387
     C     0.4843047396    0.4453991609    1.2497466246
     C    -0.8651159227    0.7044200524    1.0310241456
     C    -1.5748203389   -0.0322907071    0.0763404317
     C    -0.9181177640   -1.0312527020   -0.6510798644
     C     0.4272371798   -1.2954369182   -0.4139277862
     N    -2.9464086662    0.2448118871   -0.1601771480
     C    -3.3506422904    1.5957918960   -0.3087296062
     C    -2.5984293394    2.4689319284   -1.1028410356
     C    -2.9806567401    3.8006684203   -1.2308192242
     C    -4.1220943406    4.2739884735   -0.5851550509
     C    -4.8750692513    3.4025067424    0.2007990845
     C    -4.4899420237    2.0738176958    0.3491535238
     C    -3.8784371236   -0.7946057680   -0.2281529276
     C    -3.6923015521   -1.9782383160    0.5097531538
     C    -4.6120812040   -3.0078484902    0.4360310503
     C    -5.7587714041   -2.9019974081   -0.3678987825
     C    -5.9432564251   -1.7197170039   -1.0988493933
     C    -5.0236707653   -0.6864077830   -1.0361282662
     C    -6.7068235394   -4.0086146620   -0.4135542529
     N    -6.5389626980   -5.1350250562    0.2147124437
     C    -7.5903864628   -5.9975228447   -0.0010087522
     C    -8.6155260470   -5.5052802056   -0.8397323428
     S    -8.2064398743   -3.8939568070   -1.3511327924
     C    -9.7408728387   -6.2682426324   -1.1467273144
     C    -9.8320878188   -7.5429324208   -0.5992524553
     C    -8.8222604735   -8.0458749334    0.2356057189
     C    -7.7027268586   -7.2855493607    0.5393582640
     H     2.1885291778   -0.7614155052    0.7105090259
     H     1.0251781164    1.0238003442    1.9941762170
     H    -1.3774134819    1.4773169634    1.5968486200
     H    -1.4666336181   -1.5944019179   -1.4008244230
     H     0.9272064447   -2.0733498287   -0.9850151833
     H    -1.7160744179    2.0985485335   -1.6169792010
     H    -2.3873404101    4.4681757467   -1.8502865994
     H    -4.4214071398    5.3128809300   -0.6921985992
     H    -5.7616328784    3.7610966507    0.7173011948
     H    -5.0678591884    1.4022370645    0.9776610160
     H    -2.8232809040   -2.0809111306    1.1517271445
     H    -4.4597471018   -3.9104565186    1.0194955353
     H    -6.8094079063   -1.6006682761   -1.7460445883
     H    -5.1851705818    0.2103320103   -1.6255031049
     H   -10.5236477265   -5.8806154148   -1.7919113657
     H   -10.6999609368   -8.1570114938   -0.8228690359
     H    -8.9197214786   -9.0456528331    0.6494887312
     H    -6.9159353341   -7.6664132283    1.1841076654
