33
-1.2701071242238688e+03 frame 30   xyz file generated by TeraChem
     C     1.5068659998   -0.0368682159    0.1757727881
     C     2.8853677891   -0.6462807854    0.2232864153
     O     3.1414557103   -1.6431960142    0.8838978279
     N     3.8072528081   -0.0002094007   -0.5678584662
     C     5.1371851882   -0.3198079096   -0.8099214670
     C     5.8107203231   -1.3801744883   -0.1678789771
     C     7.1378793356   -1.6284208396   -0.4580430935
     C     7.8302580795   -0.8361752863   -1.3910823405
     C     7.1542242118    0.2157301095   -2.0283822320
     C     5.8279187367    0.4733565462   -1.7426660956
     N     9.1634068493   -0.9995809087   -1.7587907181
     N     9.7748948658   -1.9366939725   -1.1707149807
     C    11.0992399087   -2.0808911843   -1.5733246821
     N    11.7522595857   -1.4407443600   -2.4955469825
     C    13.0425750882   -1.9066373186   -2.5740815585
     C    13.3760363686   -2.9465419981   -1.6695959704
     S    11.9853508851   -3.3253847855   -0.7041000763
     C    14.6517880633   -3.5105461674   -1.6424126366
     C    15.5966135849   -3.0224409997   -2.5346863107
     C    15.2810101818   -1.9921554537   -3.4377876618
     C    14.0159694527   -1.4308314831   -3.4661895236
     H     0.9693559245   -0.3087288898    1.0856167222
     H     0.9625465787   -0.4470109045   -0.6832733562
     H     1.5320895486    1.0517619977    0.0724672584
     H     3.4649072946    0.8102553781   -1.0694773190
     H     5.2764175935   -1.9905565809    0.5469449837
     H     7.6585981356   -2.4425692441    0.0354720219
     H     7.6949646072    0.8215832231   -2.7495095501
     H     5.3105085362    1.2896684202   -2.2405836761
     H    14.8986350502   -4.3061916363   -0.9460776930
     H    16.5971854357   -3.4455038458   -2.5335724847
     H    16.0435014414   -1.6326433466   -4.1229458494
     H    13.7616800261   -0.6342554001   -4.1591530620
