35
-1.4744104331737626e+03 frame 46   xyz file generated by TeraChem
     C     1.2746488015   -0.5448172941    0.3895078267
     C     2.6927798898   -1.0081606709    0.1752795139
     O     3.0736372400   -2.1325034908    0.4651155814
     N     3.5060116791   -0.0542673769   -0.3987028472
     C     4.8346869075   -0.1494760532   -0.7812513599
     C     5.5991188687   -1.3286011805   -0.6402011584
     C     6.9159698877   -1.3471695227   -1.0494394760
     C     7.5129697673   -0.2000409700   -1.6063676325
     C     6.7487837788    0.9710911296   -1.7419952186
     C     5.4296309704    0.9980964556   -1.3379093982
     N     8.8266407813   -0.1120784918   -2.0442335884
     N     9.5021181961   -1.1787847608   -1.9416950259
     C    10.8167950014   -1.0476635015   -2.3678216011
     S    11.7207258249   -2.5528668395   -2.3703485455
     C    13.0957856343   -1.6663109298   -2.9410244073
     C    12.7476007984   -0.2952796867   -3.0726699593
     N    11.4583612437    0.0217945067   -2.7418565320
     C    13.7116590708    0.6244885679   -3.5180561475
     C    14.9805038078    0.1764860311   -3.8231179308
     C    15.2852103296   -1.1860933998   -3.6848469398
     C    14.3675084326   -2.1308631266   -3.2473721187
     N    16.6267220064   -1.6361013656   -4.0200813359
     O    17.4375429174   -0.7996822887   -4.3945332768
     O    16.8802804787   -2.8285801430   -3.9123030129
     H     0.7886717712   -1.2131200636    1.1014898938
     H     0.7305444813   -0.5874634982   -0.5614182519
     H     1.2295079981    0.4849905226    0.7566522805
     H     3.0694835991    0.8423500483   -0.5772495614
     H     5.1412004948   -2.2086354316   -0.2106207015
     H     7.5048992911   -2.2521751970   -0.9426921613
     H     7.2164763251    1.8524139597   -2.1710152203
     H     4.8439299746    1.9072231271   -1.4464063107
     H    13.4482991283    1.6723762819   -3.6183027103
     H    15.7472048889    0.8589075406   -4.1694186303
     H    14.6454139405   -3.1741410609   -3.1566673775
