35
-1.4744092156668110e+03 frame 47   xyz file generated by TeraChem
     C     0.5970928686    0.8047735048    0.6730047022
     C     1.9838791862    0.4091106812    0.2327790446
     O     2.1985044801   -0.6091195134   -0.4109479859
     N     2.9636621448    1.3024043289    0.5930517170
     C     4.3176371237    1.2729117557    0.3084605745
     C     4.9434045009    0.2605068878   -0.4338580597
     C     6.3095500286    0.3232918024   -0.6655344497
     C     7.0950137366    1.3780225044   -0.1761452529
     C     6.4963704054    2.3816366674    0.5558765403
     C     5.1123435959    2.3449719021    0.8071433947
     N     4.4185890350    3.3003488680    1.5261359255
     N     5.0958078277    4.2614878761    1.9899640764
     C     4.3315780695    5.1842006453    2.6941087427
     N     3.0457216433    5.1972306324    2.8961486230
     C     2.6994700330    6.2913116286    3.6405978080
     C     3.7734588855    7.1419077671    4.0162579105
     S     5.2558785822    6.5034496741    3.3869876737
     C     3.5689166797    8.2883092846    4.7724469536
     C     2.2599764683    8.5618925069    5.1427773705
     C     1.1734454065    7.7468242456    4.7900097437
     C     1.3904452689    6.6101963631    4.0388084287
     N     2.0070592349    9.7534324103    5.9372371008
     O     2.9611485626   10.4551876523    6.2446540133
     O     0.8518132273    9.9956985563    6.2584752177
     H     0.0457285851   -0.0961023401    0.9515568481
     H     0.0781713844    1.2673616158   -0.1745739145
     H     0.5936981529    1.5110429305    1.5069814938
     H     2.6817206328    2.1125284975    1.1363638400
     H     4.3493600879   -0.5573800545   -0.8166557858
     H     6.7774886399   -0.4695362419   -1.2430381869
     H     8.1624289185    1.4021929242   -0.3727496519
     H     7.0693257658    3.2141583250    0.9507295444
     H     4.3778430815    8.9462034295    5.0671226223
     H     0.1764573641    8.0209927450    5.1132761188
     H     0.5688132322    5.9619260260    3.7523417036
