33
-1.2701064418584185e+03 frame 41   xyz file generated by TeraChem
     C     0.9293613059   -0.6697139138   -0.0375341879
     C     2.3787759098   -0.2707421248    0.0843940451
     O     2.7410087275    0.8981958442    0.0580907464
     N     3.2361311784   -1.3286185914    0.2553531009
     C     4.6102576690   -1.3186094616    0.4395093534
     C     5.3913048892   -0.1542845464    0.4619545538
     C     6.7631299436   -0.2488845807    0.6492091582
     C     7.3986870448   -1.4868262556    0.8181142376
     C     6.6434450510   -2.6422376128    0.7982680601
     C     5.2523622674   -2.5763531878    0.6106087062
     N     4.4080687406   -3.6775270328    0.5744354805
     N     4.9524598521   -4.8053515371    0.7303628629
     C     4.0589988756   -5.8706953135    0.6844583420
     N     2.7741435683   -5.8537266984    0.4951619022
     C     2.2745056628   -7.1326482358    0.5241999705
     C     3.2287712529   -8.1585831687    0.7447660559
     S     4.8001120609   -7.4451884069    0.9167457671
     C     2.8584620874   -9.5025401983    0.7997411745
     C     1.5160617195   -9.8122778937    0.6316735935
     C     0.5578671614   -8.8065648417    0.4121769800
     C     0.9228242095   -7.4727779224    0.3565287209
     H     0.4175730439    0.0520289364   -0.6771730387
     H     0.4654467701   -0.6329535605    0.9551607073
     H     0.7982813653   -1.6779247157   -0.4396820750
     H     2.8343459679   -2.2611008969    0.2643072584
     H     4.9107339536    0.8051218870    0.3319710625
     H     7.3526172131    0.6639543281    0.6632540621
     H     8.4736832574   -1.5354296768    0.9627134728
     H     7.0992441598   -3.6188676901    0.9243004324
     H     3.5957028886  -10.2812578970    0.9693275238
     H     1.2019755580  -10.8514607687    0.6706288060
     H    -0.4847425220   -9.0833897820    0.2845384920
     H     0.1911783486   -6.6882540739    0.1878920796
