38
-9.3359818819817224e+02 frame 37   xyz file generated by TeraChem
     C     1.6764175712    0.1550528386   -1.2645141530
     C     2.8144159833   -0.1747537435   -0.3054982761
     N     3.2244534443   -1.5698735284   -0.3676270691
     C     4.6205157567   -1.8396750690   -0.6426014730
     C     4.7619353165   -3.2394597526   -1.1942672451
     N     4.1813275661   -4.2010950258   -0.2734838893
     C     3.0358794094   -3.8884736518    0.3868655540
     C     2.5369758970   -2.5229472597    0.3636334991
     C     1.3788184088   -2.2354807668    1.0620589993
     C     0.6623731167   -3.2207935200    1.7823702967
     C    -0.5233006256   -2.9746995413    2.4940543422
     C    -1.1602347581   -3.9960539926    3.1703340861
     C    -2.3588453862   -3.7788799610    3.8965088340
     N    -3.3431741484   -3.5947556045    4.4903358886
     C    -0.6336434215   -5.3469575013    3.1619384498
     O    -1.1209465382   -6.3143331181    3.7119220932
     O     0.5277169525   -5.5336844078    2.4551043160
     C     1.1690743439   -4.5316261640    1.7891311079
     C     2.3224181495   -4.8631718684    1.1083708383
     C     4.6836532277   -5.5659554059   -0.3517729948
     C     4.0028247709   -6.4091374086   -1.4250459312
     H     1.3972602401    1.2100050731   -1.1687966264
     H     0.7865552692   -0.4500514003   -1.0646424516
     H     1.9851927718   -0.0282228918   -2.2989104952
     H     2.5473667038    0.1002451539    0.7256822636
     H     3.6890701454    0.4292123438   -0.5632009929
     H     5.2471517692   -1.7241547983    0.2564929459
     H     4.9729548529   -1.1272390455   -1.3930379575
     H     5.8215104432   -3.4816670657   -1.3172483446
     H     4.2815153609   -3.3024807127   -2.1804771875
     H     0.9776843386   -1.2286222654    1.0687822335
     H    -0.9424224878   -1.9716736160    2.5111904487
     H     2.6475236480   -5.8953952712    1.1296487958
     H     4.5923615893   -6.0362480380    0.6320049338
     H     5.7560216978   -5.4932434201   -0.5584479863
     H     2.9299777817   -6.5112494658   -1.2321716309
     H     4.4432186107   -7.4115007485   -1.4449470442
     H     4.1327326308   -5.9602392740   -2.4153180526
