32
-7.8324036493262861e+02 frame 69   xyz file generated by TeraChem
     O     3.7258265436   -0.0552301224   -1.7622624349
     C     2.7773375133    0.8810663173   -1.2888095302
     C     3.0578155083    1.0793795488    0.1938078759
     C     2.7392505532   -0.2149735522    0.9418372442
     O     1.6225716102   -0.6879851566    0.9709500279
     O     3.7974927103   -0.7557894298    1.5365972685
     C     3.5498704550   -1.9667705843    2.2606341157
     N     4.3997977425    1.5615464622    0.3664885685
     C     4.7807655560    2.1519261328    1.5309063594
     O     3.9956340011    2.4998116246    2.4009377172
     O     6.1125625903    2.3118394178    1.5442615187
     C     6.7906139113    2.9576808936    2.6668349323
     C     6.5871033880    2.1475527627    3.9405331226
     C     8.2517589479    2.9196575497    2.2392151170
     C     6.3157154835    4.3984112502    2.8096637015
     H     3.6426718825   -0.1038946277   -2.7252465010
     H     1.7482072346    0.5197641630   -1.4102284544
     H     2.8755899689    1.8492986139   -1.7965926865
     H     2.3592857168    1.8292301572    0.5792511157
     H     4.5125492113   -2.2616072522    2.6765303024
     H     3.1695628408   -2.7395221340    1.5882655502
     H     2.8258695384   -1.7891601886    3.0594216464
     H     5.1147041312    1.1424224469   -0.2136389117
     H     6.9000650806    1.1094713698    3.7840511983
     H     5.5423645454    2.1604946481    4.2566023823
     H     7.2016334965    2.5732770911    4.7407506975
     H     8.5825861914    1.8865539360    2.0904818928
     H     8.8758235540    3.3774472933    3.0129704153
     H     8.3939461243    3.4727940208    1.3050950853
     H     5.2697171001    4.4412913612    3.1182597031
     H     6.4318079908    4.9290066861    1.8585362364
     H     6.9262517998    4.9077728733    3.5627152669
