34
-9.3503932589636861e+02 frame 46   xyz file generated by TeraChem
     C     0.8328541887   -0.9080885953   -0.8635902335
     C     2.2083501821   -0.3116611867   -0.6948437391
     O     2.3713055411    0.8879291782   -0.5062846418
     N     3.2351651364   -1.2173975101   -0.7535116720
     C     4.6050166351   -1.0016569141   -0.6050169335
     C     5.1760679613    0.2568287962   -0.3637953306
     C     6.5508083063    0.3654334361   -0.2256190579
     C     7.4044559377   -0.7480388260   -0.3189377773
     C     6.8144450117   -2.0042899685   -0.5644535184
     C     5.4450437840   -2.1248037881   -0.7043103420
     C     8.8251683601   -0.5352459177   -0.1587794321
     C     9.8548371858   -1.4033206893   -0.1886418089
     O     9.7333693229   -2.7638915156   -0.3916727790
     C    10.9966077911   -3.2912349816   -0.3542035649
     C    11.9779490001   -2.3261915906   -0.1298700932
     C    11.2829441317   -1.0438617572   -0.0092001397
     O    11.7355371129    0.0773636472    0.1921400116
     C    13.3233531089   -2.6897780540   -0.0592870729
     C    13.6470733384   -4.0312281195   -0.2178977178
     C    12.6407633001   -4.9844765458   -0.4426505833
     C    11.2931681196   -4.6356396222   -0.5157920456
     H     0.2853894522   -0.3203164573   -1.6056385031
     H     0.2964038528   -0.8195412532    0.0872285919
     H     0.8399990146   -1.9576071814   -1.1669939455
     H     2.9696895496   -2.1800203828   -0.9174492831
     H     4.5405680110    1.1279808225   -0.2869288552
     H     6.9830998895    1.3455273864   -0.0377361769
     H     7.4350212686   -2.8894754172   -0.6458359017
     H     5.0064368521   -3.1020544897   -0.8929750647
     H     9.1440040167    0.4911634767    0.0180254042
     H    14.0874809056   -1.9374277042    0.1158341967
     H    14.6837151350   -4.3506094244   -0.1686359469
     H    12.9178856422   -6.0281920404   -0.5637002106
     H    10.5162725549   -5.3732550227   -0.6890254852
