50
-1.2197282159090819e+03 frame 90   xyz file generated by TeraChem
     C     4.5382126661    0.7962735877   -2.0699287372
     C     3.6628543801    0.5879634041   -0.8397937446
     N     3.7676136187    1.6686131616    0.1289283551
     C     2.7638207305    2.7126254841    0.0327415223
     C     3.2503099704    3.9883798674    0.6799337744
     N     3.6981931034    3.6978124047    2.0304735852
     C     4.7044851161    2.7386996922    2.0998959908
     C     4.7213166156    1.6929381980    1.0955748870
     C     5.7259609925    0.7093500287    1.1519035985
     C     6.6639260159    0.7274672112    2.1668357768
     O     7.6081010145   -0.2562101493    2.1728819988
     C     8.5990683104   -0.3434750518    3.1148480997
     O     9.3789008349   -1.2791967647    2.9935848512
     C     8.6184796045    0.6681624218    4.1477596900
     C     7.6629987245    1.6589949748    4.1469226960
     C     6.6619032403    1.7187884058    3.1592443495
     C     5.6687387203    2.7235782212    3.0885452521
     C     9.6458757592    0.6298811820    5.1771686002
     N     9.7502669075    1.5046401773    6.1643333070
     C    10.8470786047    1.0898104409    6.8864162122
     C    11.4104642238   -0.0716721858    6.3043850165
     N    10.6154395731   -0.3322316289    5.2172897229
     C    12.5339520651   -0.7055215594    6.8334733742
     C    13.0901321377   -0.1419233389    7.9763975199
     C    12.5437419709    1.0123379837    8.5691791152
     C    11.4244831683    1.6391766642    8.0375475765
     C     3.7190159473    4.8111485629    2.9693088522
     C     3.1225856445    4.4532187646    4.3253146451
     H     4.3991393185   -0.0300383504   -2.7751617652
     H     5.5983603795    0.8423842840   -1.8008986144
     H     4.2743635789    1.7291316940   -2.5801980587
     H     3.8949807838   -0.3623120601   -0.3477442122
     H     2.6101537980    0.5305383325   -1.1356227102
     H     1.8283237778    2.3816501247    0.5052229141
     H     2.5574957351    2.8983060426   -1.0275455048
     H     2.4202825916    4.6971092690    0.7273615371
     H     4.0504841545    4.4405768736    0.0710249752
     H     5.7867252091   -0.0723437847    0.4052042701
     H     7.6916070326    2.4125099867    4.9302832241
     H     5.6824872402    3.4916582740    3.8531190317
     H    10.6751545129   -1.0770783474    4.5316281823
     H    12.9551106905   -1.5961384889    6.3759595180
     H    13.9671515204   -0.6033505134    8.4222622239
     H    13.0104422113    1.4191211247    9.4624414790
     H    11.0026414133    2.5302070351    8.4946844890
     H     3.1283030780    5.6162110712    2.5232364828
     H     4.7402787985    5.2072996288    3.0850716592
     H     2.0735473970    4.1601340311    4.2140491270
     H     3.1700802785    5.3180292149    4.9961075767
     H     3.6562508948    3.6262120497    4.8034242578
