44
-1.6501102216220606e+03 frame 32   xyz file generated by TeraChem
     C     2.8982816153   -0.4603973434   -2.1082748530
     C     2.4066478861   -0.6839832428   -0.6953706755
     O     3.0651468233   -1.8130045606   -0.0839805567
     C     4.2647983959   -1.5832939295    0.4905389412
     O     4.7594695396   -0.4754585179    0.5583939344
     C     4.8835956859   -2.8169286148    0.9939649042
     C     4.4797705264   -4.1227793736    0.6123698360
     N     3.4438218321   -4.4640728706   -0.1408135607
     S     5.5408858068   -5.3614158904    1.2199202786
     C     6.5338534962   -4.1274424088    2.0107580097
     C     6.0528114332   -2.8354921870    1.7971044598
     C     6.7079076660   -1.6728641328    2.4276579183
     C     8.0729717841   -1.4342578770    2.2295574808
     C     8.6995659376   -0.3656321804    2.8661388700
     C     7.9744658233    0.4639287140    3.7185700022
     C     6.6152750689    0.2266064322    3.9258751360
     C     5.9831277239   -0.8292865966    3.2796479738
     N     7.5813771649   -4.4557772891    2.7741185464
     N     7.8429187809   -5.7066973666    2.8256879924
     C     8.9306001721   -6.0345948993    3.6358592558
     C     9.7010191208   -5.1054442204    4.3627798251
     C    10.7591405915   -5.5375802962    5.1389164311
     C    11.0528070465   -6.9023755857    5.1916521789
     C    10.3077195408   -7.8416160008    4.4803614277
     C     9.2489652154   -7.4013861835    3.7060736028
     N    12.1563932905   -7.3543524641    6.0106350388
     O    12.7911089958   -6.5175222121    6.6430475142
     O    12.4066367439   -8.5542925789    6.0366655953
     H     2.3387127995    0.3647489043   -2.5615894571
     H     2.7471009034   -1.3549418486   -2.7207287809
     H     3.9606287437   -0.1999304790   -2.1163039141
     H     1.3477751060   -0.9489706889   -0.6749387611
     H     2.5708410573    0.1935127362   -0.0665540245
     H     2.8271715943   -3.7382538734   -0.4848015154
     H     3.2654810532   -5.4247735353   -0.3982470023
     H     8.6384920896   -2.0810841309    1.5655044725
     H     9.7575726150   -0.1846153145    2.6965134630
     H     8.4654210910    1.2934463889    4.2205791969
     H     6.0451277437    0.8667442044    4.5938521651
     H     4.9252284246   -1.0131573935    3.4445757503
     H     9.4547510636   -4.0508183734    4.3067740628
     H    11.3603840998   -4.8357313144    5.7054927458
     H    10.5605889331   -8.8936268417    4.5408858963
     H     8.6466763289   -8.1055727835    3.1403789976
