15
-2.3338309777195960e+02 frame 17   xyz file generated by TeraChem
     C     1.1093240487    0.1159342108   -0.2299391736
     C     2.6172025575    0.1171174245   -0.1067594711
     O     3.1041295916   -1.1509599357   -0.4944312157
     C     4.5112088399   -1.2333749119   -0.4054363455
     C     4.9456022874   -2.6218432353   -0.8197474468
     H     0.7023073470    1.0869452091    0.0699460125
     H     0.6707917996   -0.6554749401    0.4118635973
     H     0.8068373046   -0.0813977576   -1.2637193917
     H     2.9219244900    0.3371569137    0.9299593862
     H     3.0575385595    0.9010575094   -0.7453878190
     H     4.8356940580   -1.0171548939    0.6261953944
     H     4.9747478826   -0.4718329472   -1.0547513165
     H     4.5053946376   -3.3776324657   -0.1607433854
     H     6.0355230982   -2.7104577193   -0.7664765720
     H     4.6321932253   -2.8345530161   -1.8473422106
