43
-1.5008604386122402e+03 frame 47   xyz file generated by TeraChem
     C    11.6056141399   -3.1938066068    1.1225973285
     O    10.9937391757   -3.8376670605    2.2260029227
     C     9.6414040827   -3.7918163069    2.3148926804
     C     8.8073450481   -3.1448901706    1.4012674718
     C     7.4249714349   -3.1690586080    1.5959104778
     C     6.8537865753   -3.8228674477    2.6844440109
     C     7.7051378627   -4.4666389538    3.5921581723
     C     9.0791618070   -4.4531798130    3.4157828048
     C     5.3527065626   -3.8515540256    2.8865232115
     C     4.7750294453   -5.2128041100    2.7157524752
     N     4.3333357514   -6.0133322533    3.6630627468
     N     3.9153303635   -7.2086545859    3.1108716128
     C     4.1208959677   -7.0884470311    1.8261188544
     N     4.6519859781   -5.8685895683    1.5240051810
     N     4.9369006418   -5.5776112050    0.2351567385
     C     4.6125216274   -6.5952673635   -0.5041443291
     S     3.9302855571   -7.9947446657    0.3600296018
     C     4.7596922004   -6.6062638902   -1.9574529807
     C     4.7279024838   -7.8279769920   -2.6817517117
     C     4.8649365433   -7.8274546457   -4.0455593063
     C     5.0393485372   -6.6159062922   -4.7620274726
     C     5.0712877372   -5.3854218153   -4.0363965015
     C     4.9274824065   -5.4102238566   -2.6319556764
     C     5.2393400083   -4.1677349539   -4.7461206992
     C     5.3733041341   -4.1716592688   -6.1132328148
     C     5.3444255459   -5.3909439608   -6.8310251805
     C     5.1810549950   -6.5861054714   -6.1713109073
     H    12.6783190918   -3.3561586900    1.2371064393
     H    11.3975622468   -2.1170646437    1.1231824529
     H    11.2705661669   -3.6264949484    0.1721752568
     H     9.2155820568   -2.6242395112    0.5416854435
     H     6.7842341236   -2.6625804560    0.8772957204
     H     7.2818645942   -4.9868488350    4.4489655816
     H     9.7402547951   -4.9496979147    4.1206100030
     H     4.8679603904   -3.1612956971    2.1869196860
     H     5.0924482806   -3.5274257345    3.8996859126
     H     4.6128294976   -8.7723838472   -2.1556881638
     H     4.8457628456   -8.7649118031   -4.5953977184
     H     4.9396736784   -4.4732412527   -2.0821699270
     H     5.2604519806   -3.2349053921   -4.1878752013
     H     5.5019104778   -3.2360744157   -6.6504997775
     H     5.4517424845   -5.3776148062   -7.9123312604
     H     5.1571390760   -7.5244318130   -6.7200834061
