45
-2.3459789246842665e+03 frame 50   xyz file generated by TeraChem
     O     0.9990759286   -0.2676161254    2.3906642450
     C     1.8742437435   -0.5677012988    1.3230543028
     C     3.2904194922   -0.4291650204    1.8675490462
     N     4.3055872398   -0.7692343474    0.8864018511
     C     4.8455955501    0.1569330555    0.0504975299
     C     4.3319234290    1.4869130959   -0.0101385972
     C     4.8734102065    2.4255105843   -0.8536731122
     C     5.9615903257    2.1031515251   -1.6947602648
     C     6.4714204438    0.7923136982   -1.6429086073
     C     5.9390483265   -0.1581450970   -0.8006399274
     N     6.5838599734    2.9617132040   -2.5742593889
     N     6.1156435356    4.1452825922   -2.6161836860
     C     6.7743743400    4.9722851988   -3.5088548691
     S     6.1572021703    6.6029939862   -3.6156927767
     C     7.3494327693    6.9445947106   -4.7955891822
     C     8.1211835490    5.8295521312   -5.0236069793
     N     7.7891080220    4.7204591770   -4.2934667651
     C     9.2087242045    5.7878036087   -6.0204394161
     C     8.9721938277    6.2993981770   -7.3035471330
     C     9.9454565445    6.2970566154   -8.2938429796
     C    11.1935756244    5.7614590209   -7.9982450445
     C    11.4794413232    5.2488631602   -6.7385496226
     C    10.4873676050    5.2715289798   -5.7632313475
    Cl    10.9233107452    4.6826783489   -4.1839432403
    Cl    12.4314245040    5.7313545480   -9.2215812094
     C     4.7536355567   -2.1579573897    0.8923867772
     C     5.9489128574   -2.4010012161    1.8063331755
     H     0.0937441074   -0.3545450500    2.0614107234
     H     1.7306753102    0.1165703708    0.4732890257
     H     1.7258710664   -1.5926499128    0.9505333414
     H     3.4073120937   -1.1031327279    2.7228765490
     H     3.4453329375    0.5847554895    2.2477682784
     H     3.4851038579    1.7695017317    0.6047095401
     H     4.4598745823    3.4285896381   -0.8852270990
     H     7.3122935333    0.5423867315   -2.2844001079
     H     6.3817007591   -1.1466234320   -0.7828962569
     H     7.4410666675    7.9248042614   -5.2448747528
     H     7.9860324482    6.6938494326   -7.5306317242
     H     9.7328683457    6.6939467634   -9.2808140113
     H    12.4611491586    4.8484206298   -6.5111240519
     H     4.9728083343   -2.4702158580   -0.1327884143
     H     3.9040930888   -2.7656297180    1.2200801724
     H     6.8207015318   -1.8210049019    1.4866217804
     H     6.2192572921   -3.4622546548    1.7950115467
     H     5.7114878919   -2.1206503564    2.8383091521
