32
-1.3810036543207646e+03 frame 64   xyz file generated by TeraChem
     C     1.7794727391    0.2411520268    1.2486429478
     O     2.5028501581    0.0182719487    0.0434367648
     C     3.0755263277    1.0615781214   -0.5630431506
     C     3.0165747502    2.3674990018   -0.0630785666
     C     3.6268591747    3.4176500254   -0.7400484969
     C     4.3130587719    3.2062048986   -1.9383611819
     C     4.3781285855    1.9225586722   -2.4440825508
     C     3.7787748596    0.8291135230   -1.7865694166
     N     3.9663804899   -0.3651603347   -2.4609229845
     N     3.5040902422   -1.4264600242   -1.9471789381
     C     3.7449410688   -2.5510857448   -2.7328122134
     N     4.2675510617   -2.6345450343   -3.9218352957
     C     4.3055867310   -3.9413075750   -4.3277321472
     C     3.7849780511   -4.8864489182   -3.4036615268
     S     3.2346446379   -4.0552618429   -1.9862078069
     C     3.7633115479   -6.2463274389   -3.6816573276
     C     4.2747934522   -6.6373495092   -4.9110312985
     C     4.7954709991   -5.7341809289   -5.8501025524
     C     4.8121544796   -4.3850352949   -5.5605272881
     N     4.2693974317   -8.0543469148   -5.2372555638
     O     3.8445270769   -8.8389128865   -4.3994702707
     O     4.6909409850   -8.3937015143   -6.3346149638
     H     1.4000978606   -0.7372339225    1.5436309411
     H     0.9427139800    0.9282392809    1.0838709899
     H     2.4345324686    0.6350853221    2.0329177097
     H     2.4905083363    2.5689318739    0.8628248368
     H     3.5611639040    4.4180637344   -0.3207442070
     H     4.7842191592    4.0322811419   -2.4610123008
     H     4.8989470754    1.7066513468   -3.3723690017
     H     3.3698814684   -6.9784655966   -2.9864929156
     H     5.1795484549   -6.1095705093   -6.7908649623
     H     5.2109766457   -3.6651152371   -6.2677817495
