51
-1.2378265113780139e+03 frame 67   xyz file generated by TeraChem
    Br     0.0728743570   -2.1329772835    0.0428739363
     C     0.0715149794   -0.1643031908    0.0712399767
     C    -1.1629066853    0.4955892509    0.0984242703
     C    -2.4219037800   -0.1766938974    0.1114522095
     C    -3.5978732794    0.5186479928    0.1107602835
     C    -3.5934503929    1.9372680753    0.0913081582
     C    -2.4106050755    2.6211315540    0.0858665800
     C    -1.1551477558    1.9395927442    0.1013879384
     C     0.0689635408    2.6382262836    0.0935314081
     C     1.2940118948    1.9408597822    0.0953412081
     C     1.3050478112    0.4971925104    0.0666327780
     C     2.5655925770   -0.1721395251    0.0474918103
     C     3.7404669540    0.5241695388    0.0804484869
     C     3.7333666853    1.9412845937    0.1474692583
     C     2.5490489157    2.6225188583    0.1546749641
     C     0.0654949411    4.1139503494    0.0853677436
     N    -0.4372485425    4.9002886818    1.0188670354
     C    -0.2240289455    6.1905393833    0.5947757172
     C     0.4353579193    6.1825467240   -0.6299580121
     N     0.5897422637    4.8513334291   -0.9278971669
     C     0.9627447832    7.2232144926   -1.5189018748
     C     1.6441746562    8.3341828907   -1.0007016867
     C     2.1644076404    9.3028087940   -1.8523601890
     C     2.0254931539    9.1738438923   -3.2342151689
     C     1.3585550397    8.0688452674   -3.7593340805
     C     0.8282326105    7.1021013288   -2.9098057137
     C    -0.7118635436    7.3180761961    1.4015502709
     C    -0.7946690797    7.1824865789    2.7948631446
     C    -1.2773716991    8.2220487828    3.5836554889
     C    -1.6895734730    9.4171590441    2.9955478050
     C    -1.6221671561    9.5588352892    1.6100668548
     C    -1.1435942896    8.5185512727    0.8191164125
     H    -2.4300645454   -1.2600387189    0.1203904646
     H    -4.5424110677   -0.0179621698    0.1204041086
     H    -4.5348533323    2.4792577287    0.0796153748
     H    -2.4080392606    3.7052211008    0.0823087825
     H     2.5755672118   -1.2548538309    0.0097222801
     H     4.6859657052   -0.0105243414    0.0665829085
     H     4.6729326604    2.4839984432    0.1986299386
     H     2.5529011342    3.7055187207    0.2198178396
     H     1.0542822643    4.4866501166   -1.7499802663
     H     1.7741018719    8.4298340701    0.0735209623
     H     2.6916653596   10.1565071135   -1.4347566471
     H     2.4364934280    9.9300465481   -3.8976011055
     H     1.2430004481    7.9603652752   -4.8344924736
     H     0.2912666962    6.2539207830   -3.3278910735
     H    -0.4747200795    6.2506946880    3.2523931332
     H    -1.3295665160    8.0988458615    4.6625089787
     H    -2.0656114931   10.2298844988    3.6113901506
     H    -1.9551242046   10.4805673832    1.1396454111
     H    -1.1176286513    8.6326259823   -0.2607176685
