31
-8.9578807759698043e+02 frame 31   xyz file generated by TeraChem
     O     2.4194491841    0.2259585048    1.3346821922
     C     2.0660956939   -0.1657863200    0.2112564366
     C     2.8830798999   -1.0014385999   -0.6251360986
     C     4.1396289668   -1.4019949108   -0.1790236973
     O     4.6046526963   -1.0346009403    0.9950547155
     C     4.9674186486   -2.2359184023   -1.0015929441
     C     6.2405326774   -2.6532011108   -0.5752884942
     C     7.0213353128   -3.4562700737   -1.3811189352
     C     6.5281515231   -3.8525364812   -2.6317647056
     C     5.2772544138   -3.4542968182   -3.0733304518
     C     4.4721642375   -2.6358488506   -2.2645226162
     N     3.2135465615   -2.2227223713   -2.6860921148
     C     2.3718527006   -1.4112445181   -1.9222967358
     O     1.2680313741   -1.0806041037   -2.3497818262
     C     2.7173184318   -2.6351378475   -3.9710823442
     C     2.9985898277   -1.8636270025   -5.0955589598
     C     2.5199846520   -2.2689060414   -6.3391753865
     C     1.7665198710   -3.4364136899   -6.4519220954
     C     1.4913578658   -4.2026896484   -5.3201631657
     C     1.9675422461   -3.8038223016   -4.0736321103
     H     1.0840091057    0.1261599397   -0.1870931031
     H     3.8897201280   -0.4635375516    1.4171017189
     H     6.5908235731   -2.3279695170    0.3988795814
     H     8.0041564142   -3.7779817949   -1.0514026266
     H     7.1333237780   -4.4856741546   -3.2747275278
     H     4.9181650100   -3.7753691879   -4.0440232918
     H     3.5874985865   -0.9567604410   -4.9905686837
     H     2.7360869588   -1.6707532020   -7.2200018804
     H     1.3940784288   -3.7501671898   -7.4232693600
     H     0.9046282282   -5.1130147109   -5.4060914643
     H     1.7628232151   -4.3899808627   -3.1821536460
