48
-9.9820753066300790e+02 frame 65   xyz file generated by TeraChem
     O     2.7158463472    1.4010259076    0.9574703471
     N     3.3493078328    0.6744866180    0.2000529536
     N     3.2441636305    0.9549399467   -1.0939890376
     C     2.2504939330    1.9629922518   -1.4994914022
     C     2.5538399715    3.3460752935   -0.9494585437
     C     3.8352512367    3.7717771641   -0.5946914067
     C     4.0550388898    5.0772505281   -0.1602147883
     C     2.9960545168    5.9788874621   -0.0742298089
     C     1.7123350231    5.5605210338   -0.4208100368
     C     1.4949395046    4.2543556384   -0.8520892935
     C     2.0211124722    2.0045144844   -3.0274674597
     C     3.0175527008    2.8520688645   -3.8265422805
     C     4.4274579509    2.2709332767   -3.8195997298
     C     4.4211908343    0.7879496112   -4.1797467103
     C     3.3771811530   -0.0603350271   -3.4321298597
     C     3.6255268732   -0.2364715879   -1.9071560986
     C     5.0108222598   -0.7267425336   -1.5335904594
     C     6.1124554077    0.1264690238   -1.4046060064
     C     7.3726604753   -0.3798917827   -1.0966390072
     C     7.5563240394   -1.7493087404   -0.9112637983
     C     6.4657997337   -2.6073666633   -1.0283808692
     C     5.2050078611   -2.0967201637   -1.3309938940
     C     1.9943782450    0.5849173442   -3.5820869972
     C     3.3609687666   -1.4569291760   -4.0585948881
     H     1.3033593763    1.6375583338   -1.0422201418
     H     4.6669670679    3.0738355747   -0.6377586019
     H     5.0594251190    5.3876390027    0.1170877334
     H     3.1681822711    6.9966276759    0.2659818440
     H     0.8751538304    6.2505161608   -0.3501729710
     H     0.4883436376    3.9328242997   -1.1132990697
     H     1.0295907030    2.4585984568   -3.1472202898
     H     3.0266294705    3.8831757861   -3.4568439513
     H     2.6476950031    2.8908789755   -4.8606946669
     H     4.8862125157    2.4264898934   -2.8368361190
     H     5.0587359775    2.8158126984   -4.5326595097
     H     5.4178417604    0.3508678987   -4.0419292586
     H     4.1878363759    0.6920558331   -5.2498349584
     H     2.9190950922   -1.0242272377   -1.6131048613
     H     5.9899636620    1.1980525008   -1.5300270947
     H     8.2142249876    0.3012028169   -0.9987784504
     H     8.5403970298   -2.1421853554   -0.6694417738
     H     6.5904848881   -3.6760003770   -0.8735988958
     H     4.3559649877   -2.7730999494   -1.4023472888
     H     1.2402849263   -0.0225476663   -3.0613880602
     H     1.7181104144    0.6085948720   -4.6440818292
     H     4.3365101806   -1.9463073524   -3.9686765629
     H     3.1171612574   -1.3787237073   -5.1239735732
     H     2.6088670749   -2.1002797044   -3.5860315870
