81
-2.1561746175199942e+03 frame 48   xyz file generated by TeraChem
     O     0.8995494738   -0.6858716983   -1.6695476728
     C     2.0881649620   -0.4941475813   -1.4545507886
     C     2.6868189514    0.7404107778   -0.9949545331
     C     4.0183446487    0.8093115478   -0.8015743751
     N     4.8560489838   -0.2630425331   -1.0200352665
     C     4.3702660914   -1.5016250901   -1.4481844852
     O     5.0856374656   -2.4724157670   -1.6143956832
     N     3.0128156403   -1.5232105097   -1.6517659535
     C     6.2421680785   -0.1270382305   -0.8020331885
     C     6.8930477812    0.1356907547    0.3370925575
     C     6.3740855634    0.2931925508    1.7343572207
     C     5.2156568667   -0.6029491733    2.1156463776
     C     5.2754419038   -1.9851656787    1.9039501610
     C     4.2288882349   -2.8121485956    2.3024126725
     C     3.1028187236   -2.2703171252    2.9231284284
     C     3.0326095000   -0.8962492412    3.1379530635
     C     4.0822114662   -0.0708660680    2.7348130879
     C     8.3412665492    0.3327015568   -0.0391368530
     C     8.3663008172   -0.2067092517   -1.4805190084
     O     6.9926052414   -0.2248946241   -1.9270192836
     C     8.9332332657   -1.6073783627   -1.5850041060
     O     8.8561093131   -2.0299716801   -2.9239492566
    Si     9.3555266604   -3.5515658951   -3.4488122220
     C     8.7245442759   -3.6429595601   -5.2396426188
     C     9.2467012177   -2.4442778291   -6.0413361975
     C     9.2183546378   -4.9407401735   -5.8923738408
     C     7.1909593931   -3.6235946808   -5.2416730013
     C    11.2294639138   -3.6736684710   -3.3480651976
     C     8.5688208324   -4.8653249281   -2.3561963681
     O     8.7091970997    1.6965406545   -0.0238104813
    Si     9.6586739533    2.6572432684    0.9808207696
     C    11.1522799982    1.7322436909    1.7310831193
     C    11.9462871115    1.0002190091    0.6421369649
     C    12.0634986134    2.7861291872    2.3828449583
     C    10.7243729953    0.7346928166    2.8165034893
     C    10.2227483268    4.0356883365   -0.1623966130
     C     8.5765557522    3.3729630093    2.3431913549
     H     2.0505973754    1.5978296841   -0.8186993147
     H     4.5180019651    1.7120901260   -0.4681507028
     H     2.6378740585   -2.4140025924   -1.9607840888
     H     6.0955084580    1.3395975372    1.9187162965
     H     7.2137952532    0.0940263303    2.4157418142
     H     6.1469019999   -2.4136407818    1.4139602639
     H     4.2928401280   -3.8836296939    2.1295387082
     H     2.2859127284   -2.9162769452    3.2342697994
     H     2.1589216755   -0.4621433732    3.6176847302
     H     4.0212191265    1.0023545217    2.9036826168
     H     9.0091024579   -0.2529580744    0.6052689109
     H     8.9069584537    0.4729130683   -2.1436719977
     H     8.3697088064   -2.2796434268   -0.9209439025
     H     9.9749488373   -1.5790421902   -1.2301337419
     H    10.3431051991   -2.4171845352   -6.0681222838
     H     8.8953559654   -1.4942230053   -5.6230032519
     H     8.8935007607   -2.5022374352   -7.0816273627
     H    10.3134598253   -4.9843184218   -5.9364802411
     H     8.8443738123   -5.0102951677   -6.9243101922
     H     8.8653476196   -5.8299961960   -5.3553084068
     H     6.7978083603   -2.7154935050   -4.7692850748
     H     6.7731763211   -4.4871114217   -4.7100214041
     H     6.8093236001   -3.6542905340   -6.2731149698
     H    11.7188522442   -2.9566449502   -4.0168637983
     H    11.5705507073   -4.6793433058   -3.6212042568
     H    11.5776983188   -3.4741454128   -2.3273172363
     H     7.4900997657   -4.7009309336   -2.2521282924
     H     9.0080891340   -4.8618703883   -1.3517428785
     H     8.7188662082   -5.8658441839   -2.7790221785
     H    12.2831560531    1.6843386185   -0.1462948702
     H    11.3611942064    0.2032497940    0.1674098211
     H    12.8416947664    0.5352594291    1.0800902481
     H    12.4404212448    3.5138146067    1.6545559919
     H    12.9346565696    2.2922958746    2.8376082136
     H    11.5468286909    3.3382488519    3.1775237019
     H    10.0875965731   -0.0678715888    2.4261425113
     H    10.1773660229    1.2282977497    3.6284078278
     H    11.6116741688    0.2586128518    3.2597707045
     H    10.9016682596    3.6647570240   -0.9386651606
     H    10.7400552188    4.8264750600    0.3924029578
     H     9.3572503021    4.4881186433   -0.6603449201
     H     8.2023084683    2.5995349314    3.0232754021
     H     7.7095934937    3.8837287731    1.9070606227
     H     9.1283196638    4.1085988551    2.9409835588
