78
-2.1169116621679177e+03 frame 43   xyz file generated by TeraChem
     O     0.7319338582   -0.9663487134   -1.3491141130
     C     1.9345147785   -0.8311605005   -1.1751605459
     C     2.8126874360   -1.7674706099   -0.5054653687
     C     4.1257475410   -1.4908267823   -0.3886280051
     N     4.6811763461   -0.3274332844   -0.8778447695
     C     3.9161936939    0.6386634020   -1.5313873964
     O     4.3935670628    1.6781693196   -1.9491753052
     N     2.5881509115    0.3128913491   -1.6431972843
     C     6.0701012172   -0.1039406742   -0.7488457094
     C     6.7583242058    0.2387915638    0.3489033723
     C     6.2270542978    0.5667853783    1.6764194008
     C     6.8341527566    0.0506284156    2.8309709184
     C     6.3314443318    0.3528275911    4.0931411160
     C     5.2140735890    1.1765779223    4.2252953668
     C     4.6071233840    1.7012986203    3.0856136206
     C     5.1115072203    1.4043464566    1.8227838586
     C     8.2163937571    0.2983938880   -0.0542965877
     C     8.1758762170   -0.3122591327   -1.4715366881
     O     6.7846895041   -0.3558733513   -1.8682988800
     C     8.7428462977   -1.7131861373   -1.5484438412
     O     8.6957576464   -2.1480508396   -2.8846710067
    Si     9.2340375444   -3.6573803306   -3.4085086004
     C     8.9530998951   -3.6253316771   -5.2866835086
     C     9.7740976753   -2.4966516001   -5.9228393866
     C     9.3921822368   -4.9684713399   -5.8854091820
     C     7.4663751875   -3.3963244460   -5.5865366152
     C    11.0519134539   -3.8591105003   -2.9691425985
     C     8.2313943663   -5.0078402957   -2.5659216280
     O     8.6863111030    1.6248570967   -0.1314268206
    Si     9.6480823622    2.5959189719    0.8544315081
     C    11.1726937873    1.6759271716    1.5482122468
     C    11.9095364371    0.9330914365    0.4274883436
     C    12.1169995280    2.7323571242    2.1456697428
     C    10.7980516472    0.6861149611    2.6594382483
     C    10.1741342096    3.9596598685   -0.3244809657
     C     8.6231210534    3.3356278828    2.2454860795
     H     2.3963824846   -2.6851141175   -0.1108088259
     H     4.8286961982   -2.1589508218    0.0966780683
     H     2.0103613332    1.0042499271   -2.1103078571
     H     7.7006138273   -0.5988584545    2.7373243532
     H     6.8122388774   -0.0597594100    4.9763497216
     H     4.8223508318    1.4123800216    5.2111917581
     H     3.7438625588    2.3551626130    3.1788518600
     H     4.6562173810    1.8478892899    0.9413002700
     H     8.8566327464   -0.3009758915    0.6049603500
     H     8.6922471683    0.3410003193   -2.1791964042
     H     8.1653472951   -2.3770344421   -0.8870441851
     H     9.7773694103   -1.6802823162   -1.1738101648
     H    10.8486451652   -2.6190735750   -5.7397837302
     H     9.4773234489   -1.5135197135   -5.5391724243
     H     9.6240205060   -2.4887652170   -7.0124921542
     H    10.4568495365   -5.1673236122   -5.7103627552
     H     9.2335742471   -4.9651844234   -6.9737106902
     H     8.8195907953   -5.8086783858   -5.4734178152
     H     7.1166772171   -2.4430570327   -5.1735526009
     H     6.8385522998   -4.1944606291   -5.1719331687
     H     7.2977876657   -3.3737851461   -6.6732495567
     H    11.6687718789   -3.0761194897   -3.4244420229
     H    11.4302101899   -4.8294295162   -3.3123945981
     H    11.2005789994   -3.8153370117   -1.8834512168
     H     7.1611452865   -4.9108126154   -2.7800127863
     H     8.3615445053   -4.9702951281   -1.4776818066
     H     8.5551380487   -6.0001297338   -2.9015352296
     H    12.2287258671    1.6141677945   -0.3708931560
     H    11.2893404275    0.1512235920   -0.0281389382
     H    12.8120422364    0.4475056883    0.8270183415
     H    12.4639447414    3.4482817409    1.3914175715
     H    13.0051473783    2.2397727342    2.5679451992
     H    11.6412301637    3.2992792756    2.9556715105
     H    10.1651332812   -0.1324892595    2.2974106126
     H    10.2684356331    1.1786017429    3.4834853032
     H    11.7076162382    0.2303433311    3.0783680600
     H    10.8332380876    3.5801023031   -1.1134930221
     H    10.7033698433    4.7605523077    0.2039073692
     H     9.2934154752    4.4014389873   -0.8049287635
     H     8.2678383745    2.5782263726    2.9520143871
     H     7.7453728051    3.8485224185    1.8345831757
     H     9.2088619683    4.0759480028    2.8043069663
