48
-1.4865344647650945e+03 frame 94   xyz file generated by TeraChem
     O     7.4093514183    3.9385178971   -3.2195668699
     C     7.3339895113    2.5717590984   -2.8718997274
     C     5.9445755717    2.3451538871   -2.2892529741
     N     5.7198425185    0.9635486271   -1.9002213027
     C     6.0479151732    0.4974381406   -0.6728752611
     C     6.6717533295    1.3183814694    0.3084142645
     C     6.9729368120    0.8155136891    1.5478311258
     C     6.6953527848   -0.5290695771    1.9265457327
     C     6.0840426206   -1.3418139477    0.9352267134
     C     5.7743791116   -0.8524398255   -0.3096416838
     C     7.0647155284   -0.8778437685    3.2529344741
     C     7.0182689671   -1.9821333548    4.0941473839
     C     7.5701192164   -1.7359683411    5.4265760740
     O     8.0122991676   -0.6535523071    5.7959913810
     N     7.6038529183   -2.8179176991    6.3215426143
     C     8.2395449809   -2.5367301483    7.6192320416
     C     7.2608971665   -1.9689217746    8.6330428805
     C     7.0487961872   -4.0465436234    6.0707655315
     S     7.0576591488   -5.2639802342    7.2336871658
     N     6.4881592787   -4.2408307593    4.8350737632
     C     6.4984983124   -3.2965413952    3.7849340011
     O     6.0597812875   -3.6475982425    2.6952698249
     C     5.8711375577   -5.5347981697    4.4990092449
     C     6.8637764606   -6.5069114293    3.8836276733
     C     5.1686204743    0.0680837512   -2.9047152783
     H     8.2877085507    4.0984662248   -3.5920576070
     H     8.0963850039    2.2970315888   -2.1276301091
     H     7.4748508117    1.9210734536   -3.7481859364
     H     5.1932565132    2.6156102238   -3.0369507086
     H     5.7883657929    3.0086136390   -1.4341798343
     H     6.9295068398    2.3474678358    0.0872413175
     H     7.4492885869    1.4729791301    2.2714935523
     H     5.8580652942   -2.3721764185    1.1736593899
     H     5.3026602171   -1.5173698299   -1.0236097175
     H     7.5123039605   -0.0363912409    3.7821989095
     H     9.0389034538   -1.8240761969    7.4164010233
     H     8.6776975218   -3.4692851413    7.9722195143
     H     6.8386605846   -1.0250408692    8.2762372336
     H     7.7828318946   -1.7773631903    9.5765029747
     H     6.4451427627   -2.6715193822    8.8288676464
     H     5.0647290286   -5.3156300407    3.7995321070
     H     5.4440162971   -5.9357285442    5.4170903687
     H     7.2719083791   -6.1047011783    2.9518942594
     H     6.3582389665   -7.4519331453    3.6586916547
     H     7.6879705286   -6.7143633054    4.5728528584
     H     5.0630369628    0.6166561897   -3.8409971306
     H     4.1808418259   -0.3039110072   -2.6073548303
     H     5.8281804474   -0.7884528361   -3.0814191182
