40
-1.0875734624266659e+03 frame 68   xyz file generated by TeraChem
     O     1.0848174946   -1.1445349613   -1.5219247616
     C     2.0357059268   -0.7234804118   -0.5667043888
     C     2.8168297687   -1.9577444918   -0.1662249903
     O     3.7893115555   -1.5380666162    0.7793087037
     C     4.6702962384   -2.4526158240    1.2395749801
     C     4.6616914598   -3.8099000436    0.9030665509
     C     5.6292532982   -4.6682563530    1.4097834028
     C     6.6369472630   -4.2043435646    2.2682551321
     C     6.6236869326   -2.8396953657    2.6105103254
     C     5.6668674265   -1.9715520271    2.1138861359
     O     5.7345151133   -0.6403518848    2.4238683335
     C     4.7569222187   -0.2046777103    3.3651319063
     C     7.6877193006   -5.0489890231    2.8198189791
     C     7.8737749289   -6.3657055888    2.5861590971
     C     8.9346281825   -7.1924610458    3.1431378959
     C     9.9013115600   -6.7160484282    4.0531254370
     C    10.8873975914   -7.5483712511    4.5485690127
     C    10.9214780290   -8.8813684621    4.1369444471
     C     9.9856627530   -9.3904860959    3.2398154408
     C     9.0030558568   -8.5450157707    2.7542036889
     N    11.9501929918   -9.7552724991    4.6575583345
     O    12.7564503802   -9.2923948919    5.4569976553
     O    11.9697972827  -10.9206228083    4.2768921016
     H     0.5891902795   -0.3627616409   -1.8024700525
     H     1.5592455521   -0.2881999969    0.3239570196
     H     2.7294565230    0.0239360157   -0.9778650410
     H     3.3031535561   -2.3975437963   -1.0462248048
     H     2.1460111765   -2.7059955913    0.2747502942
     H     3.9014505115   -4.2030205662    0.2365851369
     H     5.5904192281   -5.7147161735    1.1220545588
     H     7.3847543203   -2.4342553502    3.2729933292
     H     4.9418512699    0.8587556792    3.5301964043
     H     4.8639961955   -0.7452391453    4.3133778242
     H     3.7423436598   -0.3427184477    2.9771248814
     H     8.3805522611   -4.5275513269    3.4792095251
     H     7.1917419673   -6.8924860445    1.9208511349
     H     9.8820951836   -5.6819170533    4.3820060153
     H    11.6282712680   -7.1815875774    5.2493720527
     H    10.0350044465  -10.4296434608    2.9357744455
     H     8.2664347564   -8.9315518999    2.0548723577
