22
-5.9105303322453437e+02 frame 11   xyz file generated by TeraChem
     O     0.3672518618   -2.8875561501   -0.0025258702
     C    -0.1516842861   -1.6497015530    0.0000373147
     C    -1.4852753425   -1.3855708217    0.0010270785
     C    -2.0026812772   -0.0407544686    0.0040042703
     O    -3.2119653256    0.2116907983    0.0047721186
     N    -1.0560613086    0.9885943583    0.0062968311
     C     0.3078171777    0.7540220503    0.0046345183
     C     0.8037871013   -0.5710840903    0.0016802142
     C     2.1876483864   -0.8042005135    0.0002793354
     C     3.0820957734    0.2502371233    0.0016988981
     C     2.5920106953    1.5609328691    0.0043932667
     C     1.2301071418    1.8166200818    0.0058053448
     C    -1.5512950545    2.3553876872    0.0102360880
     H    -0.3516236996   -3.5406994527   -0.0034289768
     H    -2.2200129902   -2.1848811195   -0.0003863837
     H     2.5418361473   -1.8300021409   -0.0020029043
     H     4.1515976622    0.0627305786    0.0006357877
     H     3.2840060518    2.3988242495    0.0053530690
     H     0.8833044380    2.8431302952    0.0076772988
     H    -2.6381489484    2.3025031751    0.0138105877
     H    -1.2139637274    2.8917251510   -0.8821133625
     H    -1.2077504931    2.8884218008    0.9021254740
