29
-7.8256707094102717e+02 frame 29   xyz file generated by TeraChem
     O     1.1077805082   -0.2484982049   -0.0856708074
     C     2.4461933454   -0.2924321993   -0.0057505307
     C     3.1579935345   -1.4371987455    0.1753605259
     C     4.5961369053   -1.4431861603    0.2541477796
     O     5.2686327525   -2.4625633599    0.4208482293
     N     5.2233499487   -0.1970074757    0.1270257468
     C     4.5288995869    0.9931789246   -0.0505625751
     C     3.1178717826    0.9787444063   -0.1232510311
     C     2.4144675565    2.1810615790   -0.2995685519
     C     3.0874728231    3.3844185507   -0.4014978393
     C     4.4856332400    3.3955465674   -0.3264242375
     C     5.2014758418    2.2226684634   -0.1540221323
     C     6.6578637319   -0.1870962811    0.1802661285
     C     7.3884786669   -0.2564512760   -1.0037038101
     C     8.7802516018   -0.2343377383   -0.9542049658
     C     9.4346295149   -0.1451727690    0.2734574027
     C     8.6963938320   -0.0766665110    1.4541559360
     C     7.3043307005   -0.0952564459    1.4106452176
     H     0.7441517274   -1.1433918254    0.0188226142
     H     2.6652483020   -2.4002631250    0.2674301964
     H     1.3311950918    2.1459193257   -0.3525516030
     H     2.5374902113    4.3107991752   -0.5367230144
     H     5.0253764227    4.3355716455   -0.4026050656
     H     6.2835381694    2.2506901363   -0.0961860410
     H     6.8653055083   -0.3258048975   -1.9535007492
     H     9.3524554192   -0.2873241477   -1.8762967370
     H    10.5205109748   -0.1283481608    0.3101015046
     H     9.2038940839   -0.0071933871    2.4123781697
     H     6.7162098516   -0.0398565221    2.3224604275
