12
-1.7370279527518511e+02 frame 21   xyz file generated by TeraChem
     N     1.0171318409    0.1094714144   -0.0192501627
     C     2.4425010316    0.0391962956   -0.1003453678
     C     3.0204606559    0.1378342553   -1.5302750272
     C     3.0518781156    1.1623937817    0.7463862573
     H     0.6839143296   -0.6069450010   -0.6831304808
     H     2.9173666813   -0.9094323346    0.3104724433
     H     2.6985886596    1.0829845606   -1.9922823560
     H     2.6301269941   -0.6795703461   -2.1530587374
     H     4.1212764125    0.0866223650   -1.5666867762
     H     2.7340763642    2.1366993711    0.3475821201
     H     4.1499216403    1.1347127787    0.7647976440
     H     2.6860772892    1.0988224913    1.7794900890
