58
-1.7380785584804971e+03 frame 146   xyz file generated by TeraChem
     O     1.4341052195   -1.0182090716   -1.3175271525
     S     2.9085369942   -1.0278408460   -1.4931404169
     O     3.3260287069   -1.1355775511   -2.9098479113
     O     3.5858943424    0.0793228430   -0.7677331084
     C     3.4712959262   -2.5382904089   -0.7201444134
     C     3.0311383682   -3.7750630944   -1.2545168404
     C     3.4381309995   -4.9516611525   -0.6796065460
     C     4.2973066223   -4.9529676645    0.4512603753
     C     4.7381386519   -3.7037101917    0.9838338535
     C     4.3046002168   -2.5005054164    0.3697761762
     C     5.5962560644   -3.6999137153    2.1124146201
     C     5.9994266560   -4.8812728272    2.6890878460
     C     5.5629089212   -6.1185693934    2.1617041152
     C     4.7311284699   -6.1533958494    1.0669520130
     C    -2.3838462419    0.1791425361    1.9368993926
     N    -1.0220151875    0.6561295340    2.1869149838
     C    -0.0417786707    0.3956233506    1.2886495767
     C     1.2537079629    0.7785943897    1.5098821382
     C     1.6120530418    1.4567431175    2.6994429140
     C     0.5589287577    1.7128622749    3.6065762631
     C    -0.7235001143    1.3086938577    3.3324365139
     C     2.9518097104    1.8736910056    3.0116678524
     C     4.0269045705    1.6351851454    2.2096455215
     C     5.3981021603    1.9972096413    2.4483254688
     C     6.3700553906    1.6380582134    1.4912956469
     C     7.7063948910    1.9422310188    1.6497352535
     C     8.1575834370    2.6423740475    2.7973287745
     C     7.1819038226    3.0086851783    3.7646000926
     C     5.8522669839    2.6933727449    3.5888865753
     N     9.4702511711    2.9531240360    2.9676076032
     C    10.4473011528    2.5457454297    1.9776954062
     C     9.9069542061    3.6607774456    4.1544646233
     H     2.3766569759   -3.7842390875   -2.1215146145
     H     3.1060267033   -5.9043646419   -1.0857631992
     H     4.6396325452   -1.5458258537    0.7659716358
     H     5.9286244616   -2.7450661663    2.5134487128
     H     6.6567964033   -4.8684214389    3.5543670211
     H     5.8889537945   -7.0450097084    2.6270072078
     H     4.3938100062   -7.1032086304    0.6581988568
     H    -2.5997476056    0.2652254678    0.8714713857
     H    -3.0855816205    0.7910529069    2.5033414718
     H    -2.4671810007   -0.8650846357    2.2485725902
     H    -0.3317860059   -0.1336701941    0.3878606576
     H     1.9818207082    0.5408191228    0.7402109900
     H     0.7502139112    2.2346596643    4.5387472252
     H    -1.5496052758    1.4879012068    4.0108008513
     H     3.0757014513    2.3963227820    3.9578670099
     H     3.8619788705    1.1047679714    1.2713725052
     H     6.0521817479    1.1046308896    0.5975898357
     H     8.4092834414    1.6402578143    0.8817769063
     H     7.4781586494    3.5442720954    4.6593276456
     H     5.1453789338    2.9950736327    4.3574313446
     H    10.4810314414    1.4538011055    1.8698300045
     H    11.4341168250    2.8894738633    2.2881683775
     H    10.2273582360    2.9805616846    0.9943037151
     H     9.6929494877    3.0908483546    5.0679961969
     H     9.4204871008    4.6407474267    4.2392719514
     H    10.9837039245    3.8199741633    4.0963894882
