30
-1.1767002311850399e+03 frame 30   xyz file generated by TeraChem
     C     0.9656126891    0.2750387625    0.4515669449
     O     1.9460828757   -0.1807820917   -0.4724241698
     C     2.6906897255    0.7250657388   -1.1161482556
     C     2.5432547512    2.1048945528   -0.9349950981
     C     3.3468137311    3.0056347244   -1.6261230085
     C     4.3224653303    2.5624443279   -2.5204595115
     C     4.4762302142    1.2014540995   -2.7102194144
     C     3.6840207567    0.2568539680   -2.0302753218
     N     4.0057697106   -1.0517969527   -2.3679138692
     N     3.3653376646   -1.9897285537   -1.8115179708
     C     3.7730210722   -3.2548723542   -2.2351015725
     N     4.6646192708   -3.5871832040   -3.1179708589
     C     4.7404221611   -4.9556143017   -3.2253619588
     C     3.8642070986   -5.6869890726   -2.3839649276
     S     2.9261246525   -4.5741900152   -1.4398808420
     C     3.8380748373   -7.0818717232   -2.3916027271
     C     4.7014429792   -7.7431599507   -3.2544333508
     C     5.5756350790   -7.0320591178   -4.0948589073
     C     5.6033125699   -5.6478260103   -4.0887233838
     H     0.5018694702   -0.6271177520    0.8508865742
     H     0.2082318713    0.8888054187   -0.0478911567
     H     1.4263953644    0.8450449712    1.2655279644
     H     1.7948282607    2.4829165180   -0.2482075286
     H     3.2038640012    4.0698844537   -1.4590096004
     H     4.9472593915    3.2699384522   -3.0560570720
     H     5.2212114620    0.8086307102   -3.3961958153
     H     3.1638047197   -7.6338980188   -1.7439107860
     H     4.6998018336   -8.8292330441   -3.2792978521
     H     6.2389212345   -7.5794192236   -4.7585517166
     H     6.2749835965   -5.0891239448   -4.7337943310
