32
-1.7039145313725439e+03 frame 35   xyz file generated by TeraChem
     C     1.7706470535    1.3337572129   -1.2878045341
     S     2.4083623390   -0.2372897156   -0.6670051692
     C     3.0293198203   -1.0459863018   -2.0919794381
     C     3.5915767803   -2.3206750339   -1.8987132195
     C     4.1059408893   -3.0186460041   -2.9734246144
     C     4.0734792910   -2.4674898619   -4.2661407111
     C     3.5089099755   -1.1931234501   -4.4588044847
     C     2.9939231215   -0.4917799651   -3.3861597638
     N     4.6264286085   -3.2595007934   -5.2634324371
     N     4.5917635194   -2.7673338207   -6.4295201204
     C     5.1702847648   -3.5862662275   -7.3911597119
     N     5.7657810826   -4.7343851872   -7.2415572247
     C     6.2027717618   -5.1979147201   -8.4520632385
     C     5.9260457268   -4.3610985989   -9.5663814051
     S     5.0826963214   -2.9481467322   -9.0236796375
     C     6.3137002762   -4.7058999308  -10.8540003321
     C     6.9868627145   -5.9111627514  -10.9982740198
     C     7.2771749519   -6.7642371457   -9.9228075408
     C     6.8859203892   -6.4097933160   -8.6481588946
     N     7.4117369698   -6.3031088248  -12.3326465361
     O     7.1480576494   -5.5560208819  -13.2654533506
     O     8.0129842026   -7.3613136543  -12.4580465358
     H     1.3754658739    1.8524169360   -0.4108532655
     H     0.9604410872    1.1787791769   -2.0045079979
     H     2.5651166939    1.9390603885   -1.7311494206
     H     3.6214839063   -2.7549444586   -0.9030897301
     H     4.5450474054   -4.0029717346   -2.8396640692
     H     3.4842653259   -0.7657549307   -5.4558617271
     H     2.5635784117    0.4894350840   -3.5533395108
     H     6.1112078046   -4.0779755167  -11.7133992184
     H     7.8061225444   -7.6914418693  -10.1078338031
     H     7.0971090211   -7.0503188488   -7.7981293203
