55
-1.5088728463967391e+03 frame 88   xyz file generated by TeraChem
     O     5.2264310875    4.1514416824   -1.5094435454
     C     5.5432266240    3.9739929504   -0.2240066875
     O     6.5061382694    4.5285105828    0.2616007093
     C     4.6101438726    3.1057787881    0.5562204499
     C     4.1398314295    3.5722262986    1.7811707563
     C     3.1812658042    2.8468078808    2.4860024123
     C     2.6909059346    1.6529230033    1.9643086352
     C     3.1691938721    1.1736587315    0.7454257504
     C     4.1392888746    1.8868381003    0.0404339854
     C     4.8035522191    1.2416455546   -1.1405302926
     O     6.0253600752    1.1316658556   -1.1552323495
     C     3.9659723956    0.6665650240   -2.1945362706
     C     4.2420902066   -0.5574035632   -2.8547656935
     C     5.2882634853   -1.4905251924   -2.7481999515
     C     5.2834748303   -2.6412076946   -3.5083667672
     C     4.1857390863   -2.8416678611   -4.3962178324
     C     3.1659899477   -1.9447608355   -4.4961254480
     N     3.1953621209   -0.8136225913   -3.7283507469
     C     2.2818549444    0.2202807292   -3.6648409382
     C     2.7502388516    1.1387346276   -2.7276457592
     C     2.0877882920    2.4393796682   -2.5907235843
     O     2.6170025618    3.3999054429   -2.0307852820
     C     0.7517128406    2.5624832516   -3.2228021580
     C    -0.0122067435    3.7034876506   -2.9762867021
     C    -1.2592256611    3.8547961361   -3.5760677575
     C    -1.7406827678    2.8723031527   -4.4395848287
     C    -0.9779521044    1.7364053871   -4.7022525025
     C     0.2641730629    1.5686530755   -4.0961831106
     C     1.0507842002    0.3381310212   -4.4062428919
     O     0.6544976146   -0.5006518892   -5.2165632940
     C     6.3880697980   -3.6879089938   -3.4442897834
     C     5.7742136346   -5.0395682852   -3.0401508628
     C     7.0373463579   -3.8176438936   -4.8327386681
     C     7.4732271323   -3.3230683523   -2.4295931092
     H     4.3294927319    3.7849499696   -1.7063771758
     H     4.5107691285    4.5185460655    2.1643207126
     H     2.8118432604    3.2204975510    3.4366440277
     H     1.9412742387    1.0859326013    2.5089046807
     H     2.8102881801    0.2257251572    0.3537302227
     H     6.0909313882   -1.2571853095   -2.0601282892
     H     4.1358238635   -3.7265022435   -5.0211128241
     H     2.3083501200   -2.0487353314   -5.1466570256
     H     0.3808667916    4.4639281298   -2.3085795167
     H    -1.8536641405    4.7405616351   -3.3719188826
     H    -2.7114450604    2.9911059363   -4.9123285525
     H    -1.3356466810    0.9667248881   -5.3792079620
     H     5.0168745964   -5.3754002285   -3.7560021708
     H     5.3089474235   -4.9792352667   -2.0498667405
     H     6.5611161017   -5.8016576343   -3.0039359319
     H     6.3116082181   -4.1125360057   -5.5980739681
     H     7.8194202703   -4.5847260723   -4.7992190988
     H     7.4965984538   -2.8716864742   -5.1410415699
     H     7.0681574030   -3.2372107197   -1.4147829834
     H     7.9711847443   -2.3806099188   -2.6851224319
     H     8.2344003609   -4.1102891646   -2.4206023581
