26
-8.2671025716809027e+02 frame 19   xyz file generated by TeraChem
     O    -1.5780429450    2.0264806867    0.0145509392
     C    -1.3270065912    0.7130624483   -0.0139936472
     C    -2.3284704936   -0.2454735557   -0.0883614438
     C    -2.0145224612   -1.6035152912   -0.1163114882
     C    -0.6952163107   -2.0358037705   -0.0711303622
     C     0.3590268564   -1.0728022284    0.0049398416
     C     0.0468352008    0.3142859939    0.0347180719
     N     0.9910980989    1.2860986843    0.1069736536
     C     2.2514859154    0.9125129960    0.1513348231
     C     2.6743656808   -0.4348010147    0.1275796626
     C     1.7286890322   -1.4255993831    0.0543301051
     N    -0.2947101388   -3.3694693391   -0.0957465017
     N    -1.2139390988   -4.2099364233   -0.1497038741
     N    -0.7391904880   -5.5052876409   -0.1743102537
     N     0.5519311867   -5.8787541708   -0.1567126024
     N     0.5610005028   -7.1776753989   -0.1927437845
     C    -0.7190174076   -7.6441908201   -0.2335982039
     C    -1.5719474849   -6.5730745103   -0.2226390132
     H    -2.5375014994    2.1751542543   -0.0224365991
     H    -3.3678183916    0.0722009044   -0.1253777973
     H    -2.8144126780   -2.3345600502   -0.1756429983
     H     2.9922079182    1.7089105617    0.2095737410
     H     3.7334189823   -0.6700776139    0.1670992765
     H     2.0069335161   -2.4737966420    0.0337403198
     H    -0.9403978772   -8.7011178719   -0.2678427121
     H    -2.6451490965   -6.4622804870   -0.2431391730
