6
-6.8479545266432115e+02 frame 4   xyz file generated by TeraChem
     P     0.9967230364   -0.0359427044    0.1137290696
     P     3.1880301108    0.0074253079   -0.3065662312
     H     0.6897390536   -0.9626382732   -0.9185437999
     H     0.6913511184    1.0917402556   -0.6947479419
     H     3.4934045157   -1.1202522569    0.5019175587
     H     3.4950121675    0.9341276715    0.7257013465
