27
-1.2247480154349976e+03 frame 37   xyz file generated by TeraChem
     S     1.4496183601    0.1453291488   -1.6273287736
     C     2.9577306745   -0.0944385944   -0.7639429252
     N     3.4405381198    0.8076663863    0.1425809253
     N     4.5628259657    0.3641791072    0.6195053217
     N     4.8045363592   -0.8100803230    0.0318222660
     C     3.8291965276   -1.1527732337   -0.8503772563
     N     5.9636641334   -1.4498236218    0.4040040727
     N     6.1006160025   -2.5260651353   -0.2144560756
     C     7.2437630776   -3.2602989256    0.0868731114
     C     8.1974233177   -2.8819125508    1.0237940658
     C     9.3188422846   -3.6719655173    1.2698488807
     C     9.5134350029   -4.8619639275    0.5813126267
     C     8.5558519814   -5.2929882492   -0.3920819508
     C     7.4133746625   -4.4821494185   -0.6365115854
     C     6.4917181882   -4.9445415000   -1.6053653754
     C     6.7350088767   -6.1290935686   -2.2527447223
     C     7.9036639144   -6.8542777082   -1.9318372130
     N     8.7868370955   -6.4628611499   -1.0393164136
     O    10.5735480167   -5.6528064207    0.7787447662
     H     1.2077032843    1.3536660384   -1.0891598742
     H     3.8466444310   -2.0652858994   -1.4232646950
     H     8.0670690615   -1.9555489682    1.5738279693
     H    10.0527401308   -3.3564889503    2.0075078921
     H     5.6070484526   -4.3548697428   -1.8206742900
     H     6.0479936635   -6.5124749797   -3.0007535716
     H     8.1094347716   -7.7962664414   -2.4383558679
     H    11.1533440086   -5.2627009051    1.4539408575
