40
-1.1386362085950004e+03 frame 57   xyz file generated by TeraChem
     O     8.3470546476   -7.5536018509    3.0202124098
     N     8.2776520899   -6.4668807442    2.4577263559
     O     8.7274068009   -5.4299097749    2.9316373300
     C     7.6302408263   -6.4053956538    1.1639978151
     C     7.1291610428   -7.5771547612    0.6003285995
     C     6.5157628888   -7.5067872434   -0.6388406994
     C     6.3954877788   -6.2812253795   -1.3129563443
     C     6.9141990778   -5.1131397873   -0.7228318805
     C     7.5292305816   -5.1737117223    0.5134622066
     N     5.7565986825   -6.3374367850   -2.5603867366
     N     5.5865977962   -5.1951141444   -3.0981750618
     C     4.9979558858   -5.1998153436   -4.3211537528
     C     4.7338024099   -3.9920867759   -5.0038417422
     N     4.2228200137   -4.3040363983   -6.2180381788
     C     4.1161210433   -5.6738419073   -6.3727479373
     C     4.5969777529   -6.2839554600   -5.1934686418
     C     4.6043888601   -7.6823360392   -5.1089108614
     C     4.1264388079   -8.4165075439   -6.1881807946
     C     3.6455611652   -7.7852473488   -7.3469043645
     C     3.6339559545   -6.3999166765   -7.4580690185
     C     4.9455086655   -2.6061909603   -4.5973115155
     C     5.2703650644   -1.6336185431   -5.5567838590
     C     5.4561617483   -0.3080841644   -5.1813268308
     C     5.3214810271    0.0667048069   -3.8452109446
     C     4.9988105472   -0.8923106207   -2.8858984026
     C     4.8086097262   -2.2192015323   -3.2547932901
     H     7.2242928754   -8.5182840451    1.1291772428
     H     6.1149376450   -8.4000053928   -1.1083478573
     H     6.8298109635   -4.1683930943   -1.2480401670
     H     7.9339059439   -4.2829669378    0.9803333993
     H     3.8753525256   -3.6271992356   -6.8848613344
     H     4.9739905096   -8.1732630104   -4.2165602924
     H     4.1236645355   -9.5018639941   -6.1351448567
     H     3.2779929951   -8.3886438616   -8.1722751983
     H     3.2680355401   -5.9022641217   -8.3516110612
     H     5.4057129999   -1.9191230626   -6.5969908702
     H     5.7138958416    0.4320890366   -5.9337260037
     H     5.4666698121    1.1032160262   -3.5531679617
     H     4.8840043704   -0.6047814308   -1.8443957925
     H     4.5423082521   -2.9610384036   -2.5102618102
