30
-1.4709067054607438e+03 frame 19   xyz file generated by TeraChem
     O     3.0800347020    0.4998345089    0.8786624235
     N     2.4388220372   -0.5078422312    1.1359852839
     O     1.2796432622   -0.5037186640    1.5222738533
     C     3.1010194110   -1.7996954982    0.9736086718
     C     4.3985828087   -1.8277425111    0.4768274551
     C     5.0167717370   -3.0610085182    0.3301633449
     C     4.3379846659   -4.2343722329    0.6789998861
     C     3.0271649837   -4.1807376952    1.1797474111
     C     2.4036939035   -2.9555530171    1.3269909878
     N     5.0728742154   -5.4198629483    0.4849528181
     N     4.4511317124   -6.4690802542    0.7862129008
     C     5.1910049372   -7.6370263797    0.5915660313
     N     6.4114908922   -7.7621530373    0.1618607320
     C     6.7559903824   -9.0850948673    0.1206925637
     C     5.7458733675   -9.9921514799    0.5403010148
     S     4.3301858906   -9.1065291776    0.9923974703
     C     5.9556562471  -11.3661935629    0.5516642591
     C     7.2012170030  -11.8039840859    0.1308244361
     C     8.2235880886  -10.9391619176   -0.2916238922
     C     8.0039516511   -9.5779316483   -0.2973026922
     N     7.4595275346  -13.2379885902    0.1286911117
     O     6.5631263385  -13.9858797283    0.4926395466
     O     8.5617394310  -13.6204493166   -0.2370635509
     H     4.9035574464   -0.9063588897    0.2125594053
     H     6.0287411177   -3.1352796231   -0.0549112759
     H     2.5147513052   -5.0978656191    1.4479312337
     H     1.3932050761   -2.8811334547    1.7110184770
     H     5.1959558874  -12.0703762412    0.8695172015
     H     9.1725405175  -11.3547610141   -0.6081493975
     H     8.7754630730   -8.8855516180   -0.6177578539
