19
-8.9467716164909280e+02 frame 37   xyz file generated by TeraChem
     O     1.2667359890    1.9405207471   -1.4356081984
     S     2.8731151165    2.1114944558   -1.5023496120
     O     3.2354872342    2.8557304658   -2.7028582410
     O     3.3506780875    2.6086085386   -0.2164770986
     C     3.2728423499    0.3740593801   -1.6982546408
     C     4.7604866643    0.1816335141   -1.7513311704
     C     5.4849490790   -0.0116429923   -0.5715766533
     C     6.8664145522   -0.1777807006   -0.6157224346
     C     7.5340949614   -0.1482412483   -1.8392155943
     C     6.8166528277    0.0478098123   -3.0181934572
     C     5.4349238903    0.2153317815   -2.9750956367
     H     0.8670710673    2.7860903595   -1.1487901212
     H     2.7744179017    0.0547985920   -2.6179915408
     H     2.8163466149   -0.1315011644   -0.8426899455
     H     4.9627167730   -0.0378283584    0.3816302818
     H     7.4209909123   -0.3332613783    0.3057269109
     H     8.6120646203   -0.2818518881   -1.8738762511
     H     7.3327934362    0.0682408061   -3.9742027795
     H     4.8740357698    0.3661752083   -3.8943427588
