26
-1.0623039937389326e+03 frame 33   xyz file generated by TeraChem
     C     0.8273076058   -0.8548403204   -0.3328394128
     C     0.1126289755   -0.7994192195   -1.5351095529
     C    -1.2682104072   -0.6825000310   -1.5244107550
     C    -1.9448351681   -0.6198011379   -0.2945720965
     C    -1.2279392736   -0.6748532919    0.9074208138
     C     0.1571733020   -0.7933140918    0.8875804505
     N    -3.3356037863   -0.4971878586   -0.1475581038
     N    -3.9820475131   -0.4650661911   -1.2280438589
     C    -5.3596599164   -0.3303337717   -1.0571163481
     N    -6.0356415713   -0.1793926205    0.0402690118
     C    -7.3762797934   -0.0787775050   -0.2390355970
     C    -7.7236647046   -0.1564722873   -1.6119354220
     S    -6.2806992433   -0.3608360855   -2.5511401004
     C    -9.0504922604   -0.0695817341   -2.0355305111
     C   -10.0303761620    0.0977734134   -1.0673632485
     C    -9.7013639981    0.1770290904    0.2979237907
     C    -8.3866032883    0.0910859131    0.7205140868
     H     1.9099172643   -0.9462144809   -0.3529204859
     H     0.6428610651   -0.8468244356   -2.4822472016
     H    -1.8345557386   -0.6373993421   -2.4488064829
     H    -1.7781975068   -0.6237058513    1.8425987107
     H     0.7124219600   -0.8361416434    1.8200170846
     H    -9.3081229041   -0.1302751045   -3.0884289331
     H   -11.0709299749    0.1690584332   -1.3710932226
     H   -10.4934743323    0.3079156328    1.0295918255
     H    -8.1210644290    0.1507759000    1.7718019320
