46
-2.8805486996710051e+03 frame 59   xyz file generated by TeraChem
     O     6.4499640099    3.0841837601   -2.5121120030
     C     6.5524786071    3.1364749532   -1.0967821590
     C     5.2373248950    2.6672997528   -0.4942179226
     N     4.8568953074    1.3205862948   -0.8979411513
     C     5.5972114081    0.2369620649   -0.5364212795
     C     5.4621333759   -1.0215382793   -1.1760389224
     C     6.2078134371   -2.0929223137   -0.7528695352
     C     7.1422118854   -2.0326538118    0.3072216714
     C     7.2808415174   -0.7649409570    0.9324316286
     C     6.5402367227    0.3239101527    0.5213539331
    Cl     8.3640833999   -0.4790333209    2.2629753996
     N     7.7696779381   -3.2378445017    0.5387405654
     N     8.6386288941   -3.3047092015    1.4620951182
     C     9.1934676986   -4.5679392079    1.6034378823
     S    10.4004000474   -4.7129022529    2.8557044823
     C    10.5664880436   -6.3687975473    2.4619513805
     C     9.7185885664   -6.6965878910    1.4293305059
     N     8.9459743472   -5.6734008737    0.9520847904
     C     9.5922576984   -8.0641881342    0.8887587247
     C     9.4413142594   -9.1338154920    1.7812393223
     C     9.3206936200  -10.4478447030    1.3493497290
     C     9.3456326391  -10.7035732311   -0.0167899461
     C     9.5003805229   -9.6773050712   -0.9412108409
     C     9.6260102460   -8.3709314781   -0.4794253664
    Cl     9.8876568662   -7.1323425183   -1.6739924579
    Cl     9.1861127992  -12.3382993884   -0.5917046669
     C     3.6522543711    1.1942941897   -1.7079575828
     C     3.8410301904    1.6479782334   -3.1541342508
     O     4.9687557350    1.0535688907   -3.7546534434
     H     7.3155354161    3.3086968562   -2.8834785873
     H     6.7382235690    4.1640166324   -0.7552958515
     H     7.3838202594    2.5100442727   -0.7500682539
     H     4.4389210351    3.3375135537   -0.8229786950
     H     5.2909679411    2.7557844834    0.5985024201
     H     4.8151108490   -1.1328037675   -2.0367380060
     H     6.1117607371   -3.0520412917   -1.2539439994
     H     6.6738767492    1.2531646266    1.0612853906
     H    11.2702043481   -7.0083539629    2.9786375558
     H     9.4010825677   -8.9192793786    2.8452067756
     H     9.1987055214  -11.2567018519    2.0618546239
     H     9.5354418203   -9.8873277514   -2.0044650291
     H     2.8615093987    1.7948596301   -1.2390685602
     H     3.3188983835    0.1557818957   -1.6760744605
     H     3.9127169321    2.7438958180   -3.1923651950
     H     2.9543229013    1.3551288406   -3.7279846919
     H     5.7258394985    1.5473465882   -3.3817370236
