48
-1.5459738356913749e+03 frame 71   xyz file generated by TeraChem
     C     1.8085083406    1.6265116339   -3.5213902073
     C     2.1157356618    0.6694609262   -2.5405191487
     C     1.1131671398    0.0175974989   -1.8399433542
     C    -0.2252915768    0.3265167919   -2.1230483732
     C    -0.5183401036    1.2929934657   -3.1147427818
     C     0.4904321516    1.9488627831   -3.8197123321
     S    -2.2421108737    1.4632268487   -3.2445817534
     C    -2.4298720980    0.2447557822   -1.9780939641
     N    -1.3166858221   -0.2403539885   -1.5068924731
     C    -3.7655272188   -0.1236316888   -1.5569532070
     C    -3.9963214110   -1.0325801790   -0.5869008711
     C    -5.2947396940   -1.4659066284   -0.0900776868
     C    -5.3356372062   -2.4073440621    0.9514212396
     C    -6.5406247387   -2.8629102424    1.4681842941
     C    -7.7453703323   -2.3703347878    0.9606132928
     C    -7.7243212579   -1.4262227043   -0.0741050471
     C    -6.5175988756   -0.9887847089   -0.5947179805
     N    -8.9757369663   -2.8174094503    1.4864508046
     C    -9.3254506930   -2.8343676532    2.8347949311
     C    -8.6009732879   -2.3964044095    3.9444782507
     C    -9.2058559859   -2.5016601689    5.1919726636
     C   -10.5004182866   -3.0242412913    5.3387734235
     C   -11.2222823123   -3.4451053751    4.2290117713
     C   -10.6367182188   -3.3481071458    2.9635500281
     C   -11.0957182052   -3.6579951630    1.6299935902
     C   -10.0464872029   -3.3134368562    0.7462466469
     C   -10.1540789340   -3.5201191799   -0.6299331175
     C   -11.3425741763   -4.0590313088   -1.1099148821
     C   -12.3986879635   -4.3932170160   -0.2476473838
     C   -12.2801883618   -4.1992165605    1.1227561216
     H     2.6124698245    2.1237591603   -4.0567861007
     H     3.1558274353    0.4376256439   -2.3287468572
     H     1.3420474788   -0.7236946043   -1.0797889143
     H     0.2544700503    2.6888828453   -4.5785386966
     H    -4.5844717351    0.3780758861   -2.0663761933
     H    -3.1325588335   -1.4968089708   -0.1129880952
     H    -4.4028016999   -2.7966606801    1.3519150217
     H    -6.5514175687   -3.6100728400    2.2560935427
     H    -8.6590902444   -1.0273515336   -0.4565555275
     H    -6.5308000087   -0.2545718303   -1.3949553441
     H    -7.6027880645   -1.9826087461    3.8423345804
     H    -8.6608985360   -2.1688531602    6.0713761510
     H   -10.9412450799   -3.0941351386    6.3292890293
     H   -12.2293010092   -3.8398444630    4.3385445806
     H    -9.3411921085   -3.2733427000   -1.3055817442
     H   -11.4511637750   -4.2267949764   -2.1781682572
     H   -13.3138345038   -4.8112561378   -0.6576968786
     H   -13.0924769290   -4.4676447539    1.7937040883
