58
-1.7767643321524101e+03 frame 107   xyz file generated by TeraChem
     C     2.3833596714    0.8535098718   -4.7902444203
     C     1.6724089237    0.9045225112   -5.9999241454
     C     0.3416933981    0.5206111380   -6.0623653557
     C    -0.2909124852    0.0771318954   -4.8928297504
     C     0.4379561664    0.0316230113   -3.6830391411
     C     1.7762051794    0.4170524961   -3.6188299755
     S    -0.5981828880   -0.5523036358   -2.4158293391
     C    -1.9118231543   -0.6873858962   -3.5938243183
     N    -1.6023910578   -0.3325762132   -4.8054194873
     C    -3.2341486225   -1.1666200090   -3.1972227732
     C    -3.5294257391   -1.5251810248   -1.8726504183
     C    -4.7904252032   -1.9748851490   -1.5217079756
     C    -5.8143520502   -2.0852826970   -2.4803523295
     C    -5.5075520339   -1.7275459258   -3.8058255697
     C    -4.2470141744   -1.2768417434   -4.1610994451
     C    -7.1645614291   -2.5444940272   -2.1724841146
     C    -7.6317035492   -2.8840091286   -0.9540745901
     C    -8.9815600885   -3.3355976634   -0.6303882031
     C    -9.2718615420   -3.6778166024    0.7006614134
     C   -10.5326402791   -4.1178310253    1.0793664005
     C   -11.5519817447   -4.2093519851    0.1291900546
     C   -11.2857084330   -3.8657370131   -1.2014740086
     C   -10.0185940445   -3.4443432329   -1.5741594388
     N   -12.8432291297   -4.6359799750    0.5120172215
     C   -13.5979139507   -4.1001518164    1.5517125577
     C   -13.3072710677   -3.0257955720    2.3941736865
     C   -14.2581555112   -2.6778492683    3.3467116362
     C   -15.4721390405   -3.3737759761    3.4605541754
     C   -15.7619249623   -4.4333892059    2.6101738605
     C   -14.8224254848   -4.8024830586    1.6429161256
     C   -14.8000847400   -5.8117475197    0.6104313869
     C   -13.5651163156   -5.6757951670   -0.0664657497
     C   -13.2072334341   -6.5291764961   -1.1115931677
     C   -14.1176577181   -7.5128550282   -1.4811042107
     C   -15.3525750625   -7.6533568283   -0.8281892043
     C   -15.6980386749   -6.8091294629    0.2196058744
     H     3.4255784017    1.1593735388   -4.7669931200
     H     2.1739385097    1.2501254573   -6.8995337109
     H    -0.2165799933    0.5566404249   -6.9933217388
     H     2.3277633843    0.3780460580   -2.6843628925
     H    -2.7670411078   -1.4536403457   -1.1002834228
     H    -4.9773236843   -2.2449038632   -0.4867881006
     H    -6.2806385731   -1.8059432812   -4.5666970004
     H    -4.0303387015   -1.0040637365   -5.1890383174
     H    -7.8290648605   -2.6011365704   -3.0336797573
     H    -6.9638413322   -2.8255170948   -0.0956198630
     H    -8.4861682576   -3.6082957530    1.4492739145
     H   -10.7281404179   -4.3999771616    2.1096458910
     H   -12.0818382909   -3.9147605403   -1.9387117751
     H    -9.8435368081   -3.1784204519   -2.6125619838
     H   -12.3740006961   -2.4779063188    2.3107247748
     H   -14.0537518273   -1.8460059522    4.0155914143
     H   -16.1915623543   -3.0763544202    4.2184229894
     H   -16.7057382537   -4.9670376825    2.6905483165
     H   -12.2518830854   -6.4340465526   -1.6181189790
     H   -13.8626784556   -8.1880952806   -2.2936144740
     H   -16.0406358621   -8.4325742530   -1.1440167901
     H   -16.6495515362   -6.9227466761    0.7331557046
