44
-1.4686632751815450e+03 frame 49   xyz file generated by TeraChem
     C     1.8734980738    1.7625219685    2.2964456305
     C     1.6499031130    2.5134724952    1.1312057275
     C     0.5975343817    2.2133354586    0.2802546618
     C    -0.2475300201    1.1425286011    0.6010234635
     C    -0.0109168100    0.3966354951    1.7775767243
     C     1.0477577027    0.6969135905    2.6339726330
     S    -1.2122574008   -0.8522660568    1.9103873620
     C    -1.9238314106   -0.2865658358    0.3937772410
     N    -1.3263314778    0.7308747464   -0.1490048897
     C    -3.1018660805   -0.9360253568   -0.1835593121
     C    -3.6677473494   -0.4073365925   -1.3534576496
     C    -4.7863072069   -0.9916313736   -1.9257942880
     C    -5.3561327044   -2.1311133563   -1.3464275628
     C    -4.7955059631   -2.6695681553   -0.1844195318
     C    -3.6844180102   -2.0715990666    0.3931380975
     N    -6.4884446813   -2.7342019413   -1.9309951211
     C    -6.6114598029   -3.1114864056   -3.2665825263
     C    -5.6791532889   -3.0277284151   -4.3018049187
     C    -6.0585470704   -3.5055154783   -5.5511709674
     C    -7.3289827129   -4.0604623857   -5.7705347000
     C    -8.2465162054   -4.1570235913   -4.7319465825
     C    -7.8893838381   -3.6833193016   -3.4664239398
     C    -8.5681120878   -3.6439400880   -2.1924071896
     C    -7.6727610634   -3.0539185273   -1.2702893492
     C    -8.0369709901   -2.8274049905    0.0578146490
     C    -9.3097085079   -3.2234329436    0.4536764337
     C   -10.2039983020   -3.8261735834   -0.4447312578
     C    -9.8412609732   -4.0355303633   -1.7691838065
     H     2.7054206145    2.0166319415    2.9472299956
     H     2.3122974455    3.3412650302    0.8943225548
     H     0.4155690443    2.7870695429   -0.6238068324
     H     1.2224998900    0.1178082807    3.5356583060
     H    -3.2269002899    0.4783219718   -1.7988616338
     H    -5.2323957832   -0.5590939461   -2.8161090227
     H    -5.2216533990   -3.5659660708    0.2549771615
     H    -3.2632699425   -2.5134986839    1.2926463182
     H    -4.6903793001   -2.6095748716   -4.1424244653
     H    -5.3507979805   -3.4483487675   -6.3739379844
     H    -7.5923137227   -4.4222641234   -6.7605303083
     H    -9.2267340737   -4.5974596145   -4.8966242635
     H    -7.3576654866   -2.3555262499    0.7607467275
     H    -9.6153478950   -3.0590671251    1.4835181707
     H   -11.1898741869   -4.1256608957   -0.1002179671
     H   -10.5365904181   -4.4911283313   -2.4698124598
