29
-9.2777516456973558e+02 frame 36   xyz file generated by TeraChem
     O     2.6302885565    1.4345010326    0.9190430818
     C     1.7577994949    0.6634356385    0.5970092369
     O     0.4731936429    1.1803533826    0.5799811760
     C    -0.6208000227    0.4556377188    0.2514222296
     C    -1.8453418428    1.1197170855    0.2777765575
     C    -2.9962465530    0.4243740142   -0.0561822845
     C    -2.9348379097   -0.9282094836   -0.4175259126
     C    -1.7174551658   -1.5815800506   -0.4411795885
     C    -0.5329580672   -0.8985855777   -0.1040008132
     C     0.7785974280   -1.4963116096   -0.0994299517
     C     1.9005008710   -0.7413009939    0.2355838404
     N     3.0972527500   -1.4351246058    0.2076602584
     N     4.1619306741   -0.8151985835    0.4657750327
     C     5.3068358505   -1.6548087564    0.4209862125
     C     5.2572117112   -3.0493606629    0.2993666103
     C     6.4542819460   -3.7494242574    0.2810745844
     C     7.6520828747   -3.0437818187    0.3836459325
     C     7.5899464995   -1.6581410773    0.5061880612
     N     6.4487278361   -0.9680015459    0.5310235583
     O     0.9588470391   -2.7682092914   -0.4123845581
     H    -1.8701068738    2.1679055335    0.5578715677
     H    -3.9536958232    0.9366904097   -0.0382641205
     H    -3.8409274044   -1.4645320629   -0.6802697950
     H    -1.6980497216   -2.6300609165   -0.7284588471
     H     4.2983868559   -3.5497237620    0.2249236554
     H     6.4550469759   -4.8323508139    0.1903076969
     H     8.6112457100   -3.5519745103    0.3750157648
     H     8.5045074470   -1.0737140988    0.5918723593
     H     0.1166427465   -3.2077520974   -0.6129018895
