37
-9.9132892127822379e+02 frame 45   xyz file generated by TeraChem
     O     1.2387620370    0.2833423096    1.7616013901
     C     2.3730961539    0.2451491218    1.3247817793
     C     3.0959401975   -0.9431708089    0.9397363901
     C     4.3651187549   -0.9073202946    0.4591454904
     C     5.0791046501   -2.1639709989    0.0742946341
     C     5.0278942419    0.3744641935    0.3250730909
     C     4.3051571818    1.5333960351    0.7085131741
     O     3.0282161804    1.4431915727    1.1836123810
     C     4.8302928954    2.8155066433    0.6311810573
     C     6.1284840097    2.9128209053    0.1473816325
     C     6.8903980499    1.7812364327   -0.2497477638
     C     6.3354480379    0.5103021418   -0.1590884316
     N     8.1362076861    2.1730805594   -0.6857567203
     C     8.1448065952    3.4874581190   -0.5638489236
     N     6.9575369300    3.9757312112   -0.0665117930
     C     9.2349800654    4.3793207135   -0.8925665481
     C    10.4080727181    3.9337106998   -1.3833191479
     C    11.5714092722    4.7344850958   -1.7470206727
     C    11.6153727299    6.1350598617   -1.6263967230
     C    12.7545683965    6.8407531525   -1.9899758522
     C    13.8761659304    6.1685494875   -2.4810710373
     C    13.8483485223    4.7811711575   -2.6062543089
     C    12.7074248742    4.0733315187   -2.2425635094
     H     2.5616115384   -1.8797992046    1.0589449169
     H     4.4458012203   -3.0383602575    0.2401760900
     H     5.9991658707   -2.2819835352    0.6586931784
     H     5.3707625149   -2.1389251786   -0.9823216935
     H     4.2415075131    3.6739215173    0.9363670306
     H     6.9089155085   -0.3608581808   -0.4582026918
     H     6.7462182020    4.9495409322    0.1078511582
     H     9.0536668069    5.4373834999   -0.7193201063
     H    10.5130588694    2.8591260683   -1.5295450519
     H    10.7543694352    6.6777273555   -1.2457104667
     H    12.7705392524    7.9229127990   -1.8902369724
     H    14.7652034011    6.7258016358   -2.7639366804
     H    14.7158487690    4.2489092375   -2.9872744334
     H    12.6873936159    2.9901206479   -2.3404709244
