30
-1.4996046964006275e+03 frame 28   xyz file generated by TeraChem
     C     1.3252021223   -0.9758198732   -0.5706885759
     S     2.8741816290   -0.1512209076   -0.1008300626
     C     3.2088827263   -0.7456881142    1.5383502624
     C     3.4697979304    0.2082999969    2.5265780751
     C     3.7883945171   -0.1794262573    3.8239377033
     C     3.8309445740   -1.5340947691    4.1658295485
     C     3.5744180429   -2.4931263854    3.2016614458
     C     3.2796880229   -2.1149543578    1.8807641546
     N     3.0907365088   -3.0358318174    0.8428725675
     N     2.9772888848   -4.2353911601    1.2076177865
     C     2.7992172783   -5.1294185861    0.1530519131
     N     2.6627095514   -4.8785550000   -1.1131935320
     C     2.4830014566   -6.0472047620   -1.8109722867
     C     2.4850261417   -7.2319456978   -1.0311281985
     S     2.7192499067   -6.8143185549    0.6356874836
     C     2.3135194629   -8.4890525118   -1.6125379601
     C     2.1375289205   -8.5479207506   -2.9877136774
     C     2.1324635424   -7.3815724654   -3.7740640797
     C     2.3029757712   -6.1340945291   -3.2004730927
     H     0.9810688688   -0.4644882771   -1.4739896127
     H     0.5758847020   -0.8542443147    0.2149263349
     H     1.4922941569   -2.0323554271   -0.7824309479
     H     3.4100684603    1.2625954394    2.2730016377
     H     3.9905437193    0.5789906331    4.5751720422
     H     4.0697233720   -1.8348321642    5.1818231312
     H     3.6194124829   -3.5512937381    3.4380028434
     H     2.3159257789   -9.3916482722   -1.0092541079
     H     2.0009246729   -9.5145013922   -3.4642938645
     H     1.9920727953   -7.4641763746   -4.8479980461
     H     2.3013140176   -5.2267012588   -3.7969293761
