30
-1.2640152536496489e+03 frame 27   xyz file generated by TeraChem
     C     3.8560800862    1.3060195508   -0.4437085226
     S     2.6122902680   -0.0022483068   -0.3047265776
     C     3.3978847045   -1.2937683876   -1.1904753242
     N     4.6243113423   -1.1676342142   -1.7813137865
     N     4.9347279364   -2.2897436451   -2.3566073158
     N     3.9222826222   -3.1340806973   -2.1429193300
     C     2.9257986489   -2.5666868948   -1.4153548075
     N     4.0598903141   -4.3935244771   -2.6772546685
     N     3.0600900516   -5.0993801141   -2.4281556743
     C     3.0951081759   -6.4007482315   -2.9209361334
     C     4.1537752983   -6.9430759260   -3.6388882556
     C     4.1137493236   -8.2582600818   -4.0987056265
     C     3.0104726551   -9.0633110845   -3.8505388740
     C     1.8955874637   -8.5468093756   -3.1161966361
     C     1.9440726661   -7.2044138040   -2.6487241664
     C     0.8217298210   -6.7347024666   -1.9264663252
     C    -0.2409654555   -7.5758447397   -1.7143556685
     C    -0.1828878936   -8.8912592191   -2.2249401770
     N     0.8392376880   -9.3702015315   -2.9001318676
     O     2.9275505087  -10.3308187023   -4.2691798033
     H     3.4423341500    2.1607239280    0.0965686976
     H     4.0215111976    1.5779519610   -1.4878601354
     H     4.7965069232    1.0006152219    0.0186636277
     H     2.0259832364   -3.0913700615   -1.1391365865
     H     5.0268831078   -6.3322212176   -3.8443222248
     H     4.9543284872   -8.6625922185   -4.6572441442
     H     0.8179493795   -5.7167017852   -1.5516544999
     H    -1.1174278775   -7.2467281533   -1.1648589504
     H    -1.0196014544   -9.5697700684   -2.0642104741
     H     3.7385725345  -10.5667226576   -4.7496044567
