40
-1.2137349178490363e+03 frame 37   xyz file generated by TeraChem
     O     2.2231338706   -0.4084309672    0.1646626549
     C     2.0640877691    0.5828304843   -0.5456337330
     N     1.0325431882    1.4377621054   -0.3444842795
     N     0.7325409881    2.5158031937   -1.1533996181
     C     1.5086518486    2.9523279715   -2.1755092386
     O     1.2348232855    3.9776283600   -2.7965017012
     C     2.6796524177    2.0943764917   -2.4696858008
     C     2.9575693082    0.9495013556   -1.6675537935
     C     4.0506985707    0.1575674319   -1.9349387748
     C     4.9069566429    0.4781994837   -3.0098548013
     N     5.9773552314   -0.3042130252   -3.2656995007
     C     6.7530622486    0.0243062949   -4.2818055253
     C     6.4708129999    1.1807573287   -5.0963410351
     N     5.4282323116    1.9528083845   -4.8524896813
     C     4.6288814016    1.6252046961   -3.8145043748
     C     3.5031138363    2.4249335974   -3.5219048162
     C     7.3482874713    1.5104709425   -6.2141642790
     C     7.0734406636    2.6367068892   -7.0070160268
     C     7.8904184301    2.9680109066   -8.0721275651
     C     9.0027814234    2.1700409399   -8.3600420455
     C     9.2848933234    1.0568368115   -7.5855470364
     C     8.4698473282    0.6975363536   -6.4974638841
     C     8.7567428245   -0.4806485557   -5.6679450734
     C     7.9145407665   -0.8061215195   -4.5801906913
     C     8.1897778899   -1.9303592703   -3.7845941927
     C     9.2825832871   -2.7343981193   -4.0510062274
     C    10.1205425577   -2.4218026548   -5.1267096535
     C     9.8600423061   -1.3155062383   -5.9184642629
     H     0.3121494995    1.1906303850    0.3225874167
     H    -0.0139594186    3.1079725915   -0.8107169551
     H     4.2583057210   -0.7151911162   -1.3241995554
     H     3.2921508656    3.2976036702   -4.1315917333
     H     6.2047900075    3.2390765765   -6.7631642452
     H     7.6692336961    3.8408876005   -8.6796531431
     H     9.6525256919    2.4200929878   -9.1942030854
     H    10.1550593362    0.4605853158   -7.8355961828
     H     7.5238431236   -2.1517136788   -2.9571638169
     H     9.4872650992   -3.6015760262   -3.4296832214
     H    10.9816479376   -3.0467306666   -5.3468877310
     H    10.5289394101   -1.1021565830   -6.7442299396
