29
-8.6981482355644698e+02 frame 63   xyz file generated by TeraChem
     C     1.9474298456    0.1744237554    1.2779125366
     C     0.7520870013   -0.2853115295    0.5343025984
     O     0.4423760942    0.3891515191   -0.5980568089
     N    -0.6842747071   -0.1425749552   -1.1708102185
     C    -1.0406303109   -1.1341807366   -0.3765713014
     C    -0.1582290343   -1.2732658588    0.7305879435
     N    -2.1816033631   -1.8447429955   -0.7478959040
     N    -2.4495111913   -2.7795830852    0.0546393065
     C    -3.5825535377   -3.5320441949   -0.2463760671
     C    -4.4149649791   -3.2954227556   -1.3335966234
     C    -5.5361505972   -4.0883443723   -1.5720491057
     C    -5.8523172871   -5.1417884998   -0.7242562190
     C    -5.0244126801   -5.4253093766    0.4090318243
     C    -3.8833587320   -4.6099032885    0.6444905175
     C    -3.0925831058   -4.9227102251    1.7754677713
     C    -3.4526485599   -5.9756700436    2.5779079263
     C    -4.6073429624   -6.7194057952    2.2492638886
     N    -5.3718021244   -6.4648092116    1.2093254013
     O    -6.9173603755   -5.9306465742   -0.9079370544
     H     1.8097970809    1.1997355695    1.6385497666
     H     2.8336752212    0.1608653698    0.6347044152
     H     2.1230037488   -0.4784185934    2.1350832370
     H    -0.2039892256   -1.9918601348    1.5338964725
     H    -4.1811046934   -2.4746246941   -2.0038067489
     H    -6.1749221753   -3.8848243593   -2.4284527794
     H    -2.2141179684   -4.3232855379    1.9883636859
     H    -2.8674969670   -6.2418239495    3.4527709869
     H    -4.9049671626   -7.5580634459    2.8773571328
     H    -7.4058612553   -5.6439858871   -1.6973885786
