28
-1.7260420906003883e+03 frame 14   xyz file generated by TeraChem
    Cl     3.0612445502    2.9811771488    2.7033546991
     C     2.8500845333    1.8004220593    1.4413693369
     C     2.0258890085    2.0939070338    0.3586716572
     C     1.8595448013    1.1416894172   -0.6507847832
     C     2.5037173037   -0.0829065252   -0.5837729961
     C     3.3315053761   -0.3614561508    0.5148353403
     C     3.5081197642    0.5818709838    1.5335812641
     N     4.0430300023   -1.5586985826    0.7009930387
     N     3.8751319947   -2.4101148509   -0.2093563444
     C     4.5956019967   -3.5897047019   -0.0192660325
     N     5.4314011577   -3.8927572721    0.9292151826
     C     5.9245923431   -5.1535259985    0.7296085020
     C     5.4354559663   -5.8265005829   -0.4218748156
     S     4.3201196813   -4.7985260294   -1.2560042142
     C     5.8489292146   -7.1117666858   -0.7498993113
     C     6.7659482059   -7.7034392086    0.1050395606
     C     7.2716548214   -7.0711470372    1.2519082636
     C     6.8526361893   -5.7953409195    1.5668242819
     N     7.2267622166   -9.0484724120   -0.2079764370
     O     6.7826382434   -9.5911705886   -1.2101328226
     O     8.0360954765   -9.5675015280    0.5476279331
     H     1.5199340582    3.0525544949    0.3029154520
     H     1.2163227454    1.3717745502   -1.4949983623
     H     2.3803335986   -0.8263089274   -1.3635155314
     H     4.1530954552    0.3456032792    2.3734906312
     H     5.4832840291   -7.6369673484   -1.6243871464
     H     7.9854750811   -7.5954330560    1.8754492258
     H     7.2277022817   -5.2832399541    2.4468545856
