26
-1.5217315600447041e+03 frame 16   xyz file generated by TeraChem
    Cl    -1.7492623126    0.1873785087   -1.5541406271
     C    -0.3204215168    0.0355342645   -0.5784018126
     C     0.4499792442    1.1820003891   -0.4138508725
     C     1.6392034704    1.1398548520    0.3099688784
     C     2.0874131505   -0.0620156215    0.8535774058
     C     1.3341415897   -1.2098246944    0.6680915265
     C     0.1081195633   -1.1886866914   -0.0185273675
     N    -0.5018479034   -2.4493304796   -0.0763899417
     N    -1.7414072727   -2.4661963418   -0.2866491372
     C    -2.2770666468   -3.7532082288   -0.3665871310
     N    -1.6546628687   -4.8898460437   -0.4352238769
     C    -2.5602573656   -5.9184954444   -0.5208641635
     C    -3.9256726375   -5.5343297744   -0.5204967382
     S    -4.0294803934   -3.8068869693   -0.4159692423
     C    -4.9502454358   -6.4787937929   -0.5992086264
     C    -4.5927214899   -7.8170688070   -0.6808939952
     C    -3.2429549660   -8.2132958749   -0.6838469121
     C    -2.2253706446   -7.2792906641   -0.6056493255
     H     0.1126566983    2.1118216711   -0.8608848982
     H     2.2192793282    2.0500960470    0.4311468050
     H     3.0209822468   -0.1052458670    1.4057004609
     H     1.6588593000   -2.1670008359    1.0654448349
     H    -5.9931930058   -6.1772311520   -0.5977508139
     H    -5.3714674486   -8.5717787238   -0.7446418873
     H    -2.9988025163   -9.2697428692   -0.7484612187
     H    -1.1799791035   -7.5730564728   -0.6064014119
