28
-1.3657534299240881e+03 frame 81   xyz file generated by TeraChem
     F     2.0052203792    0.9381501749    0.2228698534
     C     0.6863193934    1.1052179921    0.0815104016
     C    -0.1675959085    0.1659648156    0.6600521566
     C    -1.5322415970    0.3367866734    0.5237034861
     C    -2.0308993799    1.4434762156   -0.1886432844
     C    -1.1458050440    2.3683208826   -0.7618426285
     C     0.2249832319    2.2045778747   -0.6302944763
     N    -3.3852367793    1.7239148381   -0.3826191894
     N    -4.1814664803    0.8933805228    0.1335834585
     C    -5.5235055423    1.2113526520   -0.0629237220
     N    -6.0412191863    2.2549693401   -0.6407498462
     C    -7.4072557862    2.1781661382   -0.6079320491
     C    -7.9407533860    1.0238191484    0.0253057886
     S    -6.6403355982    0.0269576711    0.5866447549
     C    -9.3097290777    0.8145117173    0.1311232289
     C   -10.1299185929    1.7918944397   -0.4130382219
     C    -9.6406992608    2.9453543139   -1.0450305354
     C    -8.2786107999    3.1410052723   -1.1439523191
     N   -11.5703350545    1.6067651671   -0.3203899907
     O   -11.9885288757    0.5954409740    0.2265679225
     O   -12.2925786814    2.4725842881   -0.7945950374
     H     0.2509411774   -0.6747785213    1.2040456451
     H    -2.2254676335   -0.3732247233    0.9617611517
     H    -1.5561784666    3.2130314371   -1.3067382929
     H     0.9305574462    2.9061603042   -1.0625288425
     H    -9.7321295004   -0.0601749584    0.6110911034
     H   -10.3408845754    3.6677885721   -1.4467755309
     H    -7.8719981571    4.0231493309   -1.6275640564
