28
-1.2773926246770536e+03 frame 59   xyz file generated by TeraChem
     I    -1.0630232323    2.3602687809    1.3828038594
     C     1.0395689029    2.2387619607    1.1225783427
     C     1.5731516224    1.1535023003    0.4205125078
     C     2.9435369938    1.0716647802    0.2409103795
     C     3.7766838608    2.0749230519    0.7619599441
     C     3.2234080306    3.1524665920    1.4633626184
     C     1.8492043782    3.2412605117    1.6485520842
     N     5.1714745174    2.1043985190    0.6366368069
     N     5.6664000450    1.1333030284    0.0056708691
     C     7.0546677177    1.1947430550   -0.1116093729
     N     7.8686741462    2.1108126202    0.3223196305
     C     9.1554130594    1.7891327903   -0.0130145136
     C     9.3148041901    0.5743020345   -0.7320815073
     S     7.7631339922   -0.1555031266   -0.9736644346
     C    10.5643537540    0.1250835274   -1.1405260872
     C    11.6478741423    0.9255358691   -0.8110573107
     C    11.5301808945    2.1306686218   -0.1013515238
     C    10.2841262972    2.5648178229    0.3000232120
     N    12.9733579105    0.4917625011   -1.2288962339
     O    13.0696523799   -0.5637394993   -1.8395866607
     O    13.9257516310    1.2061672748   -0.9488636057
     H     0.9259407437    0.3823309336    0.0162365688
     H     3.3784674259    0.2391048164   -0.3019562199
     H     3.8867998535    3.9169520621    1.8568914359
     H     1.4248124292    4.0789595684    2.1912313111
     H    10.7023334459   -0.7982554094   -1.6904738543
     H    12.4214465290    2.7048319783    0.1210405550
     H    10.1628272972    3.4923958095    0.8497892426
