20
-6.9785633735302201e+02 frame 40   xyz file generated by TeraChem
     N     1.2943361737    1.2405551684    0.0529594044
     C     0.6339831971    0.3261935734   -0.2258186977
     C    -0.2216830498   -0.7623137327   -0.5755303565
     C     0.1226544714   -2.0797972787   -0.6104245737
     C     1.3817860696   -2.7416151202   -0.3232119946
     C     2.5610523359   -2.0908083555    0.0861642970
     C     3.7131185251   -2.8180040119    0.3330860700
     C     3.6829517005   -4.1999229708    0.1705330420
     C     2.5393233115   -4.8787489748   -0.2306017220
     C     1.3921769257   -4.1414306634   -0.4755150307
     N     4.9003440600   -4.9655648664    0.4326709248
     O     5.8977760631   -4.3505051775    0.7768898861
     O     4.8533502258   -6.1778626357    0.2924458149
     C    -1.5599936398   -0.3841081805   -0.9122584485
     N    -2.6446408639   -0.0691993621   -1.1834294697
     H    -0.6818492828   -2.7504443743   -0.9039448190
     H     2.5917689300   -1.0161097936    0.2166798556
     H     4.6262035323   -2.3278284529    0.6489603355
     H     2.5527733228   -5.9558299292   -0.3462808935
     H     0.4873873777   -4.6524540195   -0.7915832708
