29
-7.8253822444039838e+02 frame 61   xyz file generated by TeraChem
     N     2.6071464116   -0.0555315305    0.5055487980
     C     1.2925711527   -0.0663162430    0.1388531370
     C     0.7514636488    0.9736989413   -0.6482683093
     C    -0.5877295763    0.9948858415   -0.9789902920
     C    -1.4652877347   -0.0230832577   -0.5417976369
     C    -0.9114944077   -1.0598592952    0.2443516793
     C     0.4261777189   -1.0890961234    0.5788342644
     C    -2.8728558583   -0.0980632796   -0.8254759951
     C    -3.7308124461    0.6909297785   -1.5252317101
     O    -5.0604461301    0.2531637805   -1.5561427049
     C    -5.7725846002    1.1492582945   -2.2834827391
     C    -4.9836602037    2.1951225286   -2.7597972767
     C    -3.6209048800    1.9471492502   -2.2941189222
     O    -2.6197414664    2.6352608944   -2.5046055731
     C    -5.5462709889    3.2149267553   -3.5304474654
     C    -6.9057468060    3.1522064375   -3.8031698457
     C    -7.6826550879    2.0875807246   -3.3131437723
     C    -7.1347630487    1.0644858690   -2.5439040284
     H     3.2414018250    0.5229533591   -0.0280839257
     H     3.0120591093   -0.9221579000    0.8317823784
     H     1.4095177970    1.7673146338   -0.9951252873
     H    -0.9846504985    1.8011307553   -1.5875926694
     H    -1.5610296911   -1.8597925922    0.5929790946
     H     0.8237680430   -1.8999352576    1.1843894715
     H    -3.3650273946   -0.9682151897   -0.3893167074
     H    -4.9283111374    4.0287955620   -3.8999889130
     H    -7.3786469028    3.9273198772   -4.3989498253
     H    -8.7450421132    2.0603567096   -3.5405486478
     H    -7.7357570348    0.2434393428   -2.1663366784
