42
-1.2148946648776587e+03 frame 31   xyz file generated by TeraChem
     O     0.7519465645   -0.0122531607   -0.3741868057
     C     1.9811878291    0.0121598706   -0.4150667775
     N     2.7029110120   -1.1184204077   -0.6015683829
     N     4.0775525895   -1.1720940702   -0.6924386041
     C     4.9052676154   -0.1084254002   -0.5605201468
     O     6.1269771648   -0.2351535038   -0.6254558898
     C     4.2134660390    1.1824341344   -0.3428459148
     C     2.7944280199    1.2405381308   -0.2685622018
     C     2.1536421423    2.4460861212   -0.0759434441
     C     2.9082678149    3.6273828737    0.0523696661
     N     2.2740378131    4.8229859726    0.1660711916
     C     3.0039047539    5.9091756161    0.2901516194
     C     2.2678154695    7.1941058823    0.2585452308
     C     1.0354505798    7.2975740040    0.9163950118
     C     0.2981353032    8.4749441477    0.8479739040
     C     0.7723382683    9.5548647771    0.1040489539
     C     1.9885938131    9.4519382224   -0.5698908605
     C     2.7366496885    8.2820360717   -0.4892295466
     C     4.4511257569    5.8240390719    0.3970897592
     N     5.0739018981    4.6813138897    0.2136466625
     C     4.3281911336    3.5649075353    0.0079118371
     C     4.9670711282    2.3285464414   -0.2030182597
     C     5.3069392135    6.9795686826    0.7537527633
     C     4.9537048808    7.8538264991    1.7897144303
     C     5.8080309838    8.8897559065    2.1536420879
     C     7.0145051446    9.0736876884    1.4792844616
     C     7.3732992853    8.2055375989    0.4488495578
     C     6.5302741666    7.1570321913    0.0955784629
     H     2.2266980834   -1.9975523006   -0.7597785033
     H     4.4661420578   -2.0994827601   -0.8078076556
     H     1.0700034798    2.4902650998   -0.0359786772
     H     0.6664082162    6.4497423648    1.4863740678
     H    -0.6498803385    8.5490055947    1.3739859656
     H     0.1940932731   10.4731705601    0.0465723073
     H     2.3561417400   10.2846312847   -1.1633389682
     H     3.6784861477    8.2068383452   -1.0246873911
     H     6.0505788164    2.2815830791   -0.2445686986
     H     4.0177349317    7.7131106032    2.3225539882
     H     5.5307777045    9.5542668314    2.9674084202
     H     7.6751993461    9.8900938197    1.7584436249
     H     8.3129684999    8.3433766074   -0.0792033984
     H     6.8078800483    6.4715215686   -0.6999139289
