43
-1.0157436193323736e+03 frame 66   xyz file generated by TeraChem
     O     0.9534554000   -1.6483807604   -0.6353891107
     C     0.7258526870   -0.5975221473   -0.0260889131
     C     1.6317440931    0.1954012535    0.8182182077
     C     2.9354216651    0.1036159546    1.2082548946
     C     3.9760994624   -0.8476361457    0.9628330135
     C     3.8511330310   -2.0322921072    0.2024520999
     C     4.9027523782   -2.9086756373    0.0354179842
     C     4.7398690506   -4.1820949519   -0.7498567414
     C     6.0445300906   -4.5255256779   -1.4563713539
     C     7.1630711597   -4.6258002582   -0.4360375126
     N     7.2273435984   -3.4593949697    0.4325221253
     C     6.1754259354   -2.6131739854    0.6068376926
     C     6.3281024915   -1.4162167850    1.3637202277
     C     5.2417634679   -0.5856914397    1.5366950789
     C     7.6703162260   -1.0997551131    1.9654910223
     C     8.3808986117   -2.3942672214    2.3403028756
     C     8.5012912863   -3.2805611510    1.1147564049
     O     0.9420029438    1.3145336570    1.3073601170
     C    -0.3202937019    1.2653529266    0.8170843540
     C    -0.5310265450    0.1491950412    0.0082978094
     C    -1.7753672803   -0.0705095372   -0.5863328839
     C    -2.7853480598    0.8512572724   -0.3481769564
     C    -2.5508066100    1.9703946090    0.4705234482
     C    -1.3158266394    2.2015472106    1.0703261899
     H     3.2384859272    0.9379008636    1.8425087958
     H     2.8916165061   -2.2613235854   -0.2534070051
     H     3.9159727795   -4.0794458136   -1.4644408052
     H     4.4711833455   -5.0085273863   -0.0750862450
     H     6.2844673260   -3.7488477107   -2.1934271908
     H     5.9666223109   -5.4765041942   -1.9931488001
     H     8.1326284081   -4.7157056932   -0.9420464648
     H     7.0379304619   -5.5310781001    0.1783611023
     H     5.3723853734    0.3160850134    2.1333659642
     H     7.5460390111   -0.4471025469    2.8363167147
     H     8.2892901732   -0.5493042933    1.2416713609
     H     7.8117920085   -2.9163754696    3.1195358394
     H     9.3819617759   -2.1975321916    2.7372280893
     H     8.8652427810   -4.2756821435    1.3998268493
     H     9.2361209096   -2.8609445056    0.4103376338
     H    -1.9368909236   -0.9414756757   -1.2160490171
     H    -3.7659650707    0.7131628933   -0.7941475408
     H    -3.3574280021    2.6783575814    0.6416219220
     H    -1.1363841202    3.0656384871    1.7022796148
