39
-1.2783086351508307e+03 frame 52   xyz file generated by TeraChem
     N     1.3872105993    0.5867154197    0.3534803618
     C     2.6172201454    0.5376218260   -0.4279457706
     C     2.7462272113    1.7034904694   -1.3832146128
     C     1.9101633528    2.8148776528   -1.2707317047
     C     2.0137756530    3.8919131298   -2.1492768921
     C     2.9581898167    3.8674295130   -3.1710242743
     C     3.7991878637    2.7646590752   -3.2973282733
     C     3.7152038597    1.6882629005   -2.4075097842
     C     4.6133403689    0.5163875984   -2.6186873353
     C     4.3636016905   -0.2974666175   -3.7302496008
     C     5.1317524416   -1.4258068331   -3.9965991862
     C     6.1782755032   -1.7643424645   -3.1412276686
     C     6.4508821916   -0.9645406094   -2.0408258348
     C     5.6859921193    0.1806652044   -1.7649420959
     C     6.0910387059    0.9687138577   -0.5886369545
     N     6.7278405544    0.4357239004    0.4130242230
     C     7.0810626701    1.3795751237    1.3510599827
     C     6.7001186481    2.7037625193    1.0437124561
     S     5.8615126931    2.7168908237   -0.4775145041
     C     6.9818354340    3.7648231680    1.9047819355
     C     7.6592758606    3.4819456307    3.0840109860
     C     8.0448606897    2.1691816634    3.4024169615
     C     7.7614960094    1.1153933931    2.5480696602
     H     1.4043811311   -0.1773642444    1.0247615111
     H     0.5979617230    0.3908486744   -0.2595171858
     H     2.7391485876   -0.3965547697   -1.0007654826
     H     3.4577881486    0.5628452105    0.2798506832
     H     1.1668135857    2.8203728900   -0.4792382664
     H     1.3495378482    4.7453380360   -2.0381107105
     H     3.0407267459    4.6971152906   -3.8680105129
     H     4.5416477246    2.7331679581   -4.0911286873
     H     3.5367717690   -0.0366883186   -4.3853508531
     H     4.9120326729   -2.0378728478   -4.8670892515
     H     6.7883439341   -2.6418436741   -3.3363621616
     H     7.2757505109   -1.2045984378   -1.3777190127
     H     6.6828833473    4.7802584970    1.6621153745
     H     7.8931717014    4.2910268302    3.7703404032
     H     8.5723043973    1.9789949738    4.3330147499
     H     8.0538716545    0.0966053959    2.7855507490
