41
-1.0276647552596023e+03 frame 63   xyz file generated by TeraChem
     N    -0.8980091663   -4.2379576010    2.5949809642
     C    -0.9541591542   -3.4449622757    1.7414400442
     C    -1.0810969020   -2.4430849366    0.7433686334
     C    -0.0324054827   -2.0496666698   -0.1040572863
     C    -0.1093392675   -0.7832377336   -0.8277380577
     C    -0.7123370004    0.3641056095   -0.2750560951
     C    -0.7552123235    1.5599662105   -0.9632935226
     C    -0.2017227279    1.6659766815   -2.2569883923
     C     0.4093415964    0.5236015567   -2.8165600595
     C     0.4621801123   -0.6613159500   -2.1106779650
     N    -0.2044060392    2.8562411749   -2.9230746139
     C     1.1552155260   -2.8357477446   -0.2836388592
     C     1.2374627533   -4.1908174716   -0.1240268093
     C     2.4021407728   -4.9965613885   -0.2735052035
     C     3.7089360400   -4.5814007895   -0.5288083805
     N     4.5389754244   -5.6439036943   -0.5962753724
     C     3.8124368911   -6.8051676520   -0.3854851305
     C     2.4636770650   -6.4392754164   -0.1788667832
     C     1.5175350570   -7.4433193373    0.0596299812
     C     1.9401798609   -8.7655863400    0.0855361420
     C     3.2890375438   -9.1054905752   -0.1219404223
     C     4.2479654583   -8.1296894555   -0.3609053384
     C     5.9651217618   -5.5955782920   -0.8405045608
     C    -2.3816373012   -1.8760038276    0.6719228384
     N    -3.4732690639   -1.4672816069    0.6345646088
     H    -1.1172096204    0.3278511129    0.7319567050
     H    -1.2042447036    2.4374107713   -0.5045456871
     H     0.8380009567    0.5848800513   -3.8137980943
     H     0.9242200105   -1.5297422213   -2.5727218578
     H    -0.8600409948    3.5638429011   -2.6219864828
     H    -0.0363335783    2.8416594212   -3.9195522040
     H     2.0335119935   -2.2895332910   -0.6194074078
     H     0.3268735687   -4.7389053089    0.1096238882
     H     4.1003787455   -3.5812858632   -0.6649716781
     H     0.4718603098   -7.1957802847    0.2241062902
     H     1.2165049107   -9.5549234518    0.2701113940
     H     3.5867166446  -10.1500345121   -0.0943932449
     H     5.2905676844   -8.3890529576   -0.5206048561
     H     6.2632016840   -4.5576853957   -0.9927825721
     H     6.2120308868   -6.1772804001   -1.7334830381
     H     6.5085850402   -6.0068957399    0.0154078509
