61
-1.6893302210768111e+03 frame 86   xyz file generated by TeraChem
     C     2.3106160919   -0.4343384899    0.8955446598
     C     3.1870549106    0.4560837157    0.0244319719
     N     2.8908307346    0.3289954965   -1.4002154651
     C     1.9745329279    1.1036206786   -2.0204037045
     C     1.1560935295    2.0187315806   -1.2835704242
     C     0.2370300618    2.8158105401   -1.9109688381
     C     0.0612147693    2.7616161206   -3.3167630346
     C     0.8570872378    1.8514789119   -4.0482832650
     C     1.7817787216    1.0456585626   -3.4321320664
     N    -0.8150171660    3.5176374032   -4.0403827671
     N    -1.5328229525    4.3373466056   -3.3599191525
     C    -2.3869732076    5.0883317215   -4.1208401311
     N    -2.5649738364    5.1040908541   -5.4296799673
     C    -3.5023515642    6.0122480167   -5.7611150509
     C    -4.0879461829    6.7342813047   -4.7313737087
     S    -3.3872378933    6.2123102594   -3.2292882444
     C    -5.0844704098    7.7423752681   -4.8944013635
     C    -5.7132866093    8.4128031204   -3.8954705326
     C    -6.8084572451    9.3483922890   -4.0555144984
     C    -7.8664002007    9.2485759415   -3.1213952367
     C    -9.0013544838    9.9932453623   -3.2628790520
     C    -9.1407526041   10.8606972309   -4.3708846574
     C    -8.0517780694   10.9915591130   -5.2727432417
     N    -6.8809084787   10.2742366778   -5.0429182721
     C    -5.6632534102   10.6984396894   -5.7803973580
     C    -5.1957797685   12.0761803121   -5.3354081015
     C    -8.1879317577   11.8413929994   -6.3882820544
     C    -9.3650514916   12.5344081347   -6.5835008272
     C   -10.4411752443   12.4228820424   -5.6839747789
     C   -10.3275304601   11.5931457737   -4.5939957523
     C     3.6657575901   -0.6799094143   -2.1160084467
     C     4.9355931227   -0.1197982749   -2.7459469539
     I    -1.8387863597   -1.5300994904   -0.9320594920
     H     2.5707837887   -0.2968619520    1.9503866785
     H     2.4554695947   -1.4903472995    0.6432236727
     H     1.2499263469   -0.1962663405    0.7658254085
     H     4.2410205238    0.1891657386    0.1539171815
     H     3.1013624351    1.5049677974    0.3193928417
     H     1.2408584042    2.0756870298   -0.2049140451
     H    -0.3759830713    3.4970325529   -1.3300986282
     H     0.7257396956    1.8078810642   -5.1260526703
     H     2.3799990569    0.3779250371   -4.0400562995
     H    -3.7684510306    6.1548100884   -6.8049813589
     H    -5.3598236298    7.9265532271   -5.9323515953
     H    -5.5198065652    8.1339120782   -2.8617128161
     H    -7.7573684850    8.5357113487   -2.3118011796
     H    -9.8154183006    9.9073356369   -2.5485643181
     H    -5.8685401964   10.6426989926   -6.8510279373
     H    -4.8831989194    9.9771141874   -5.5649253880
     H    -5.9298428995   12.8616545937   -5.5289559747
     H    -4.2806905377   12.3217684794   -5.8832667746
     H    -4.9641393665   12.0690600169   -4.2658781728
     H    -7.3895131683   11.9490576631   -7.1110324911
     H    -9.4576253917   13.1744138954   -7.4559714655
     H   -11.3546619506   12.9829932388   -5.8577234575
     H   -11.1446566141   11.4772157470   -3.8875173432
     H     3.0318293842   -1.1610510971   -2.8663616119
     H     3.9219100331   -1.4572042173   -1.3892778979
     H     4.7053744771    0.6415928388   -3.4980108543
     H     5.4968627630   -0.9246544140   -3.2319970750
     H     5.5792003211    0.3336157879   -1.9844502479
