28
-7.0353356463002592e+02 frame 28   xyz file generated by TeraChem
     N     1.2880502730    0.5867108125    2.3162218179
     C     0.6292830719    0.0986895547    1.4892202331
     C    -0.1699513707   -0.4999532325    0.4793435124
     C     0.1926333691   -1.6362565636   -0.2160225875
     C     1.3495116832   -2.4363240050   -0.1150032590
     C     2.4579571324   -2.3032527417    0.7331942772
     N     3.3359311272   -3.2945036161    0.5136902986
     C     2.8551897935   -4.1274208197   -0.4915629674
     C     1.6085080803   -3.6214243948   -0.9118659464
     C     0.9084694072   -4.2889689497   -1.9225821669
     C     1.4701408668   -5.4316593064   -2.4770148346
     C     2.7129963343   -5.9205294886   -2.0393978699
     C     3.4269673345   -5.2754610167   -1.0381766851
     C     4.6264373005   -3.4401339593    1.1768360663
     C     5.7740418988   -2.9015299373    0.3348909981
     C    -1.4092726177    0.1382084744    0.1977333633
     N    -2.4234696787    0.6629261449   -0.0295567120
     H    -0.5330464037   -1.9620047183   -0.9588010238
     H     2.6692313021   -1.5557387557    1.4857537792
     H    -0.0549847101   -3.9251881837   -2.2705929443
     H     0.9387807169   -5.9598890775   -3.2638337629
     H     3.1239496485   -6.8184653936   -2.4920126097
     H     4.3879741395   -5.6503709041   -0.6989861177
     H     4.7641486509   -4.5026069967    1.3986043863
     H     4.5590836166   -2.9097474878    2.1299177435
     H     5.8426700999   -3.4211521762   -0.6257357224
     H     6.7171520686   -3.0473328112    0.8706726533
     H     5.6451268994   -1.8315005082    0.1445741971
