57
-1.4892353625275778e+03 frame 60   xyz file generated by TeraChem
     C     2.4733816660    1.1162822308   -2.7580425037
     C     2.4197093397    0.6265046442   -1.3145210193
     N     2.9151868498   -0.7336606258   -1.1232673150
     C     2.1403862604   -1.8077090275   -1.4280776775
     C     2.6381614201   -3.1429464382   -1.2933504829
     C     1.8466462800   -4.2269565498   -1.5715665504
     C     0.5118240316   -4.0765366685   -2.0092405829
     C     0.0329998580   -2.7574991706   -2.1474373894
     C     0.8064309038   -1.6486463267   -1.8773294933
     O    -1.2423318860   -2.5345086485   -2.5673869848
     C    -2.1223711935   -3.5452562007   -2.8853007273
     O    -3.2283020985   -3.2002434755   -3.2508999534
     C    -1.6480597681   -4.9184673545   -2.7508258587
     C    -0.3565593615   -5.1383238348   -2.3211275252
     C    -2.5888970842   -5.9587602561   -3.0881677880
     C    -2.3734475464   -7.2948678166   -3.0261802602
     C    -3.4260126826   -8.2210243434   -3.4220756262
     O    -4.5156666893   -7.7586536666   -3.8625820615
     C    -3.2525465943   -9.6773384692   -3.3604864192
     C    -4.2815118183  -10.4746039306   -3.8798591972
     O    -5.3891256089   -9.9643531490   -4.3632419839
     C    -4.1624568617  -11.9066563566   -3.9190175361
     C    -5.1812153057  -12.7051012987   -4.4654893573
     C    -5.0507151273  -14.0790109171   -4.5085672473
     C    -3.8864723894  -14.6688072335   -3.9995527416
     C    -2.8701740357  -13.9019692291   -3.4540066126
     C    -2.9926954045  -12.5013749803   -3.4029456722
     N    -2.0013532900  -11.7110672567   -2.8555549927
     C    -2.0681696219  -10.3164702884   -2.7886292042
     O    -1.1414614949   -9.7051635629   -2.2503131766
     C    -0.8209296814  -12.3522239619   -2.2924966406
     C     4.3053572889   -0.8938912759   -0.7051599437
     C     5.2830187791   -1.1275998636   -1.8526198032
     H     2.0540367703    2.1262002972   -2.8207371643
     H     1.8966529659    0.4663151049   -3.4238200378
     H     3.5042438305    1.1507968232   -3.1230241509
     H     1.3972505875    0.6877074480   -0.9256538876
     H     3.0247800558    1.2788960272   -0.6793193228
     H     3.6573633608   -3.3157480865   -0.9721682298
     H     2.2484936062   -5.2308076883   -1.4602045862
     H     0.3605948410   -0.6731081745   -2.0227708472
     H     0.0143643214   -6.1556996123   -2.2173285784
     H    -3.5645390020   -5.6134372388   -3.4221500970
     H    -1.4396986826   -7.7235993119   -2.6890183887
     H    -5.2726855704   -8.9449011090   -4.2449500039
     H    -6.0688309731  -12.2165327314   -4.8537124993
     H    -5.8386933058  -14.6942119143   -4.9317274843
     H    -3.7701090745  -15.7488128187   -4.0287799831
     H    -1.9843230869  -14.3918228081   -3.0689170768
     H    -0.2762963067  -12.8981947027   -3.0686470759
     H    -1.1089534057  -13.0451446989   -1.4966586372
     H    -0.1858160859  -11.5707995525   -1.8832649967
     H     4.3658935681   -1.7093317066    0.0230178566
     H     4.5802097932    0.0156526900   -0.1643965973
     H     5.0229905033   -2.0252232015   -2.4229312349
     H     6.2953504830   -1.2579116978   -1.4550533504
     H     5.2928710744   -0.2765659563   -2.5402067668
