48
-1.2385152774603916e+03 frame 47   xyz file generated by TeraChem
     C     3.5283414811    0.8537130233    2.7078097360
     C     3.0218265034    0.5275939686    1.3062274561
     N     3.0882783457    1.6404902085    0.3648545239
     C     2.1482874787    2.6243988810    0.3777013444
     C     2.2312558969    3.7407993355   -0.5117758893
     C     1.2611163423    4.7103805437   -0.5272273723
     C     0.1519964274    4.6503076729    0.3406177961
     C     0.0801459928    3.5622984108    1.2281903428
     C     1.0441921123    2.5738701722    1.2607912694
     O    -0.9525877022    3.4381002725    2.1041365878
     C    -1.9999417411    4.3450592906    2.1961775477
     O    -2.8516231369    4.0801150967    3.0163126192
     C    -1.9450337638    5.4824126536    1.3031643051
     C    -0.8861972463    5.6107747168    0.3962134126
     O    -0.8453862118    6.6447463746   -0.4299359839
     N    -2.8562006023    6.5133652693    1.2148093080
     N    -3.8540571316    6.5339764046    1.9873329073
     C    -4.7214813733    7.6254487190    1.8130765283
     C    -4.5848051371    8.6494015296    0.8659564445
     C    -5.5178887233    9.6741175161    0.7901384063
     C    -6.6110336896    9.6919727619    1.6696245633
     C    -6.7540228441    8.6731076911    2.6215877988
     C    -5.8198052627    7.6559370217    2.6863913005
     O    -7.5697844385   10.6432314605    1.6729985853
     C    -7.4991755006   11.6726034788    0.6994098088
     C     4.2485099374    1.7102385929   -0.5181290124
     C     5.3809819080    2.5903883673    0.0017394914
     H     3.4117694818   -0.0217057218    3.3559755527
     H     2.9706586645    1.6831185458    3.1544453964
     H     4.5880539656    1.1258059845    2.6891943779
     H     1.9903732507    0.1597701948    1.3478090398
     H     3.6158985897   -0.2854910063    0.8800335243
     H     3.0705830013    3.8392529990   -1.1882520761
     H     1.3461266139    5.5460013513   -1.2150490755
     H     0.9199659229    1.7752293198    1.9806186964
     H    -1.6507323270    7.1757041638   -0.2219633565
     H    -3.7410717921    8.6394563213    0.1828234954
     H    -5.3918118004   10.4548272875    0.0477152483
     H    -7.6054944159    8.6995774923    3.2951831980
     H    -5.9201455085    6.8580124022    3.4170958946
     H    -8.3706537710   12.3054952318    0.8712460310
     H    -7.5388932923   11.2610699310   -0.3157180859
     H    -6.5864818472   12.2682908228    0.8166676841
     H     3.9253833621    2.0459369182   -1.5089867868
     H     4.6087160787    0.6860420692   -0.6486965377
     H     5.0477634785    3.6216837261    0.1577340769
     H     6.2031356912    2.6036230077   -0.7220870936
     H     5.7678560325    2.2089927270    0.9515348378
