46
-1.3284180012045899e+03 frame 58   xyz file generated by TeraChem
     C     2.8984425127   -0.0364823575    1.9250048052
     C     2.2607124062    0.0678150222    0.5434453856
     N     2.5011186902    1.3379654609   -0.1351757937
     C     1.7337540258    2.4260662422    0.1230872481
     C     1.9493117036    3.6635121576   -0.5651626317
     C     1.1521821757    4.7522473274   -0.3329395469
     C     0.0950275917    4.7009321496    0.6018420908
     C    -0.1076291763    3.4879785835    1.2885084348
     C     0.6813727627    2.3787683216    1.0703760707
     O    -1.0969911489    3.3585260866    2.2128356185
     C    -1.9671360366    4.3791684918    2.5601158695
     O    -2.7964478991    4.1069122520    3.3977067181
     C    -1.7800159254    5.6432666463    1.8717010333
     C    -0.7603452175    5.7789192187    0.9088819496
     O    -0.5942958611    6.9289683101    0.2824767246
     N    -2.5078205476    6.7847268356    2.0420826754
     N    -3.4335861933    6.8284780440    2.9050870567
     C    -4.1093802164    8.0597700497    2.9502975604
     C    -4.0082709010    9.0787039328    1.9866459069
     C    -4.7375956617   10.2446752644    2.1321977088
     C    -5.5671003166   10.3916329820    3.2453101023
     C    -5.6921844576    9.3942066761    4.2090882049
     C    -4.9654040257    8.2266104060    4.0493767155
     N    -6.3258257939   11.6182329886    3.3995407058
     O    -6.2403658251   12.4667929907    2.5202826452
     O    -7.0153605371   11.7500484794    4.4033383178
     C     3.6429181581    1.4125206338   -1.0444340695
     C     4.8805973514    2.0708676433   -0.4447303043
     H     2.6485630745   -1.0032494344    2.3754067514
     H     2.5402746470    0.7531471301    2.5936009073
     H     3.9885626249    0.0375340780    1.8619724485
     H     1.1803638063   -0.0998068297    0.6051642374
     H     2.6524991154   -0.7203223163   -0.1054695820
     H     2.7505562292    3.7539190156   -1.2872866201
     H     1.3316054485    5.6774548054   -0.8716877640
     H     0.4714104313    1.4915722007    1.6535652314
     H    -1.2830882178    7.5353664407    0.6428755969
     H    -3.3632158173    8.9427259328    1.1255120375
     H    -4.6769618977   11.0398988036    1.3983352406
     H    -6.3500870042    9.5373014970    5.0582074221
     H    -5.0395680711    7.4230488575    4.7755138610
     H     3.3382556682    1.9278815086   -1.9621052874
     H     3.8782803894    0.3866544268   -1.3385525572
     H     4.6798569197    3.1013470591   -0.1346329960
     H     5.6835363028    2.0904547163   -1.1894537302
     H     5.2376082000    1.5159487531    0.4282581573
