44
-1.1241126477286080e+03 frame 56   xyz file generated by TeraChem
     C     2.8533325609    0.2854560441   -2.6787217770
     C     2.2551474343    0.1856490313   -1.2790299348
     N     2.5211757292   -1.0775544981   -0.5989692625
     C     1.7470153704   -2.1720231932   -0.8231571393
     C     1.9914103765   -3.4027435182   -0.1354380909
     C     1.1860473996   -4.4953594687   -0.3264700311
     C     0.0923477222   -4.4519659454   -1.2154907901
     C    -0.1391601917   -3.2469782938   -1.9030763149
     C     0.6600379034   -2.1346921620   -1.7289038090
     O    -1.1695196912   -3.1271424794   -2.7826053535
     C    -2.0600554896   -4.1512132480   -3.0743645859
     O    -2.9249647743   -3.8831565968   -3.8786088369
     C    -1.8452352592   -5.4037424028   -2.3803225025
     C    -0.7837862687   -5.5311297447   -1.4721449677
     O    -0.5926385386   -6.6755199334   -0.8371924909
     N    -2.5855829509   -6.5562474980   -2.4991701857
     N    -3.5842804707   -6.5923272179   -3.2689469631
     C    -4.2501692897   -7.8367211525   -3.3040827205
     C    -3.8467453002   -8.9996260422   -2.6297854562
     C    -4.5932922601  -10.1633184193   -2.7563488370
     C    -5.7440544759  -10.1870093186   -3.5494951424
     C    -6.1465240295   -9.0342830078   -4.2212861410
     C    -5.4012109024   -7.8659299239   -4.1005805137
     C     3.6947592414   -1.1444670540    0.2678748220
     C     4.9131226765   -1.8041100304   -0.3692957215
     H     2.5843556934    1.2471149386   -3.1292844545
     H     2.4832449421   -0.5116379091   -3.3319598517
     H     3.9452737148    0.2197833574   -2.6446202944
     H     1.1726044280    0.3475622412   -1.3123576956
     H     2.6599749505    0.9809844578   -0.6466855618
     H     2.8204110267   -3.4873965904    0.5554348755
     H     1.3890957981   -5.4156222560    0.2125248344
     H     0.4260527449   -1.2529218656   -2.3114127578
     H    -1.3039840906   -7.2772917962   -1.1619290719
     H    -2.9517789950   -8.9828141427   -2.0161443542
     H    -4.2771329037  -11.0630477843   -2.2346482751
     H    -6.3212206243  -11.1030611520   -3.6426101951
     H    -7.0393713517   -9.0452080346   -4.8405055054
     H    -5.6946686507   -6.9556456675   -4.6164310101
     H     3.4254862244   -1.6553544600    1.1993273706
     H     3.9383682771   -0.1163796705    0.5480315722
     H     4.7019309350   -2.8350116039   -0.6711738802
     H     5.7394453917   -1.8235823854    0.3495569899
     H     5.2434532437   -1.2515145080   -1.2542901786
