66
-1.7926727819268021e+03 frame 91   xyz file generated by TeraChem
     C     1.3336559384   -1.0582761396   -0.4206364772
     C     2.3009152278   -0.2748953106    0.4572817263
     N     2.5774875197    1.0654533722   -0.0511925443
     C     1.8127992222    2.1340796218    0.2705771278
     C     0.6253910974    1.9856699187    1.0572497073
     C    -0.1428496375    3.0693518706    1.3886195483
     C     0.1988616505    4.3717016062    0.9631240694
     C     1.3614126699    4.5114328395    0.1864126162
     C     2.1577197743    3.4407986571   -0.1558029507
     O     1.7677629843    5.7357130347   -0.2472274074
     C     1.0754159258    6.8992159302    0.0002051151
     O     1.5713350020    7.9031179208   -0.4686978711
     C    -0.1403856240    6.7983572860    0.7921700761
     C    -0.5459081633    5.5324385817    1.2841504229
     O    -1.6147090925    5.3900012985    2.0143443608
     B    -2.2310452694    6.5702942856    2.6626734438
     F    -1.6106362260    6.7923394478    3.8810207391
     F    -3.5812587219    6.3528588321    2.7974567614
     O    -2.0338438536    7.7636143887    1.8026701461
     C    -1.0006595517    7.9127093284    1.0205969093
     C    -0.8396774964    9.1907583293    0.3998798795
     C    -1.6868543252   10.2219364267    0.6786834566
     C    -1.6591117268   11.5428775071    0.1087788168
     C    -0.7240683878   11.9297682546   -0.8894465844
     C    -0.7127279432   13.1994350824   -1.4269662266
     C    -1.6636822766   14.1205576693   -0.9605058102
     C    -2.6079210057   13.7665578908    0.0422198279
     C    -2.6022102335   12.4821085663    0.5650755618
     C    -3.4075548156   14.9453224871    0.2827118136
     C    -4.4753875904   15.2353197131    1.1351686261
     C    -5.0227167271   16.5124102021    1.1114250013
     C    -4.5130994654   17.4955226009    0.2483986466
     C    -3.4508103684   17.2311370263   -0.6095480565
     C    -2.9082395630   15.9461651856   -0.5840388894
     N    -1.8657882898   15.4204300905   -1.3356508600
     C    -1.0576500577   16.1629906079   -2.2874938851
     C     0.1259388164   16.8635731595   -1.6338390779
     C     3.7449364065    1.1831124825   -0.9185457263
     C     5.0156706109    1.5440033132   -0.1593233132
     H     1.2026292679   -2.0706052907   -0.0239668405
     H     1.7174310799   -1.1386568405   -1.4433996477
     H     0.3519922147   -0.5748326586   -0.4606111685
     H     3.2624696411   -0.7950905494    0.5130641964
     H     1.9340439039   -0.2084339109    1.4854121230
     H     0.3110153340    1.0044366684    1.3902614937
     H    -1.0393333485    2.9353156296    1.9855317692
     H     3.0524943680    3.6401181764   -0.7317187805
     H    -0.0148324320    9.2924568571   -0.2913213392
     H    -2.4731736644   10.0442689059    1.4109247059
     H     0.0053989636   11.2081473051   -1.2438635067
     H     0.0136418158   13.4727619095   -2.1860020373
     H    -3.3187074960   12.1926608618    1.3305359974
     H    -4.8679347549   14.4744041104    1.8049585999
     H    -5.8529067394   16.7559640783    1.7684651569
     H    -4.9554149825   18.4881409335    0.2503168854
     H    -3.0617269703   18.0019016237   -1.2681905426
     H    -1.7108706650   16.8854256419   -2.7860889575
     H    -0.7204603709   15.4609153997   -3.0553767589
     H    -0.2131543828   17.5807461225   -0.8795412894
     H     0.7020100457   17.4055035613   -2.3907928419
     H     0.7887596904   16.1386644149   -1.1502571205
     H     3.5391466714    1.9097464513   -1.7103987882
     H     3.8677534090    0.2173706494   -1.4188726341
     H     4.9211937668    2.5178662599    0.3316960640
     H     5.8659152752    1.5859877550   -0.8480833858
     H     5.2335097104    0.7936704135    0.6084899606
