40
-1.2136809687961786e+03 frame 39   xyz file generated by TeraChem
     O     1.9541679250    1.0118759502    1.1713238179
     C     2.0380444001    0.0561543259    0.4260285341
     C     1.4100252541    0.0036167907   -0.9372392374
     C     0.4285066493   -1.1652649089   -0.9608879114
     C     0.9091480544   -2.4255790607   -0.2758357978
     O     0.1729362177   -3.3960833173   -0.2302055667
     C     2.2588756708   -2.4239056322    0.3817057163
     C     2.7630965047   -1.2072885312    0.7908918754
     C     3.9800758510   -1.1436864752    1.5670630288
     N     4.4824623557    0.0423815267    1.9123734143
     C     5.5939768068    0.0557255923    2.6421958933
     C     6.2386651920   -1.1522340862    3.0424862851
     N     5.7567057219   -2.3395170530    2.6636063515
     C     4.6470994381   -2.3563156093    1.9269404800
     C     4.1356662230   -3.6289299096    1.4601978534
     C     2.9528867780   -3.6670981355    0.6764003180
     C     2.5237323805   -4.9197092565    0.1857401344
     C     3.2231553283   -6.0749008676    0.4810494513
     C     4.3720164265   -6.0294118289    1.2821400022
     C     4.8237396559   -4.8162306708    1.7617668293
     C     7.4269804755   -1.1014793309    3.8442554265
     C     7.9567363909    0.0907666469    4.2258840202
     C     7.3330535410    1.3188962811    3.8296261619
     C     6.1700340291    1.3142403307    3.0485971618
     C     5.6253603332    2.5689414470    2.7132492559
     N     6.1500114579    3.7198790525    3.0876830171
     N     7.2700608582    3.7301515091    3.8344991663
     C     7.8302591983    2.5912802616    4.1878368804
     H     2.2028242075   -0.1501425957   -1.6802024118
     H     0.9071018133    0.9499060261   -1.1495246820
     H     0.1588128745   -1.4411559410   -1.9865136804
     H    -0.5065121013   -0.8824169933   -0.4615373510
     H     1.6349525270   -4.9752272053   -0.4269605815
     H     2.8749646187   -7.0250369200    0.0856369548
     H     4.9120510381   -6.9425818637    1.5157381643
     H     5.7208576018   -4.7538378988    2.3680601575
     H     7.8827175666   -2.0453092442    4.1283540579
     H     8.8570543295    0.1330632454    4.8325283719
     H     4.7197539686    2.6272583272    2.1154409994
     H     8.7315768230    2.6736413869    4.7924355527
