58
-1.6212181193982401e+03 frame 56   xyz file generated by TeraChem
     C     2.6410238156    0.7992735649    1.3000205514
     C     3.4110804998    1.6840133057    0.3283704293
     N     3.0301137299    1.4645527343   -1.0661106584
     C     2.0159051722    2.1294575202   -1.6518739444
     C     1.1836302092    3.0242717744   -0.9010982209
     C     0.1559958649    3.7041057196   -1.4927361107
     C    -0.1236137128    3.5478347518   -2.8770724755
     C     0.6943490675    2.6636752968   -3.6223891254
     C     1.7262008245    1.9747118310   -3.0417697346
     N    -1.1144157577    4.1703928994   -3.5650125839
     N    -1.8599322775    4.9679592928   -2.8739533772
     C    -2.8347634991    5.5713206553   -3.6041389385
     N    -3.1201509868    5.4725557274   -4.8848650417
     C    -4.1683765280    6.2332013874   -5.2470268745
     C    -4.8238716821    7.0110019812   -4.3043932065
    Se    -3.9813921269    6.7611559179   -2.6086335478
     C    -5.9262667191    7.8514696955   -4.5987962788
     C    -6.6350434654    8.6038491507   -3.7100209817
     C    -7.7763790732    9.4070522458   -4.0264402400
     S    -9.0630145174    9.5079277616   -2.8760127773
     C    -9.9881100676   10.5242590335   -3.9403080960
     C    -9.2810505404   10.7468821073   -5.1285130080
     N    -8.0292321797   10.1257622560   -5.1288295086
     C    -7.0306883268   10.4823472712   -6.1556896366
     C    -6.4920620813   11.8871328473   -5.9371462034
     C    -9.8351511195   11.5178256313   -6.1527945231
     C   -11.0980352511   12.0537408063   -5.9485543229
     C   -11.8005172170   11.8346917879   -4.7548570327
     C   -11.2552148690   11.0660120448   -3.7360127087
     C     3.8398866036    0.4859059962   -1.7889383893
     C     5.0265108887    1.1193580973   -2.5044467602
     I     0.8226887094   -2.7670785326   -1.3084946286
     H     3.0002623771    0.9701686167    2.3202412528
     H     2.7819209812   -0.2596922859    1.0590869355
     H     1.5682233825    1.0160001327    1.2722500800
     H     4.4827759456    1.4737749861    0.3968751272
     H     3.2912526472    2.7419912765    0.5756928145
     H     1.3510001799    3.1570327036    0.1609623246
     H    -0.4652472715    4.3703105709   -0.9033981252
     H     0.4855462635    2.5469608169   -4.6821975143
     H     2.3333816171    1.3239883573   -3.6586720766
     H    -4.4837581414    6.2253985075   -6.2881995680
     H    -6.2281827128    7.8244630627   -5.6445893452
     H    -6.4189611083    8.5266626609   -2.6460570810
     H    -7.5138728772   10.3676921598   -7.1289187897
     H    -6.2215214348    9.7610807169   -6.1077871871
     H    -7.2787676252   12.6444006686   -5.9878631814
     H    -5.7570725626   12.1032729353   -6.7183692858
     H    -5.9954678014   11.9590379467   -4.9647553657
     H    -9.3039572207   11.6904542429   -7.0826605670
     H   -11.5495435779   12.6529980899   -6.7332081791
     H   -12.7873999927   12.2683755014   -4.6256831974
     H   -11.7954176604   10.8870408590   -2.8119466324
     H     3.2060116731   -0.0693911695   -2.4848994511
     H     4.1875700040   -0.2422965651   -1.0500157487
     H     4.6949621404    1.8393045941   -3.2594418783
     H     5.6176917964    0.3438689768   -3.0022803591
     H     5.6760463783    1.6411010941   -1.7934870910
