58
-2.4694836986050123e+03 frame 84   xyz file generated by TeraChem
     C     4.0208281470    0.3626230067   -1.4392316168
     C     4.4537625946    0.3140336045   -2.9004136685
     N     3.4327321654    0.7875186771   -3.8374424968
     C     2.3652286080    0.0262517935   -4.1569399953
     C     2.2538570754   -1.3240872549   -3.6882858106
     C     1.1825580396   -2.1063282438   -4.0171126424
     C     0.1327163412   -1.6000619476   -4.8286685901
     C     0.2353963762   -0.2678506369   -5.2962606950
     C     1.3072630673    0.5239973793   -4.9775796261
     N    -0.9809531768   -2.2833953734   -5.1884308323
     N    -1.0867529828   -3.4935388193   -4.7650399716
     C    -2.2484098169   -4.0688352781   -5.1704330638
     N    -2.5499149432   -5.3182965922   -4.8663435645
     C    -3.7445344041   -5.6330083256   -5.3809951063
     C    -4.4328318588   -4.6631652066   -6.1001916874
     S    -3.4541137083   -3.2165431574   -6.1246219059
     C    -5.7083550274   -4.7992739641   -6.7105160978
     C    -6.3843961373   -3.8020103203   -7.3449055072
     C    -7.6984900430   -3.9061961570   -7.9069730619
     S    -8.7518734802   -2.5427063883   -7.7852834690
     C   -10.0317235912   -3.4126941040   -8.5736965859
     C    -9.6062681688   -4.7067717387   -8.8992325909
     N    -8.2781729219   -4.9385321659   -8.5318037230
     C    -7.5696769485   -6.1306480227   -9.0355249048
     C    -7.2979225717   -6.0225942604  -10.5275044472
     C   -10.4758006934   -5.6055055213   -9.5220572265
     C   -11.7608670716   -5.1693310720   -9.8080897871
     C   -12.1808020076   -3.8702009693   -9.4874942711
     C   -11.3223764918   -2.9758485672   -8.8643462864
    Cl    -4.3505124344   -7.2255551099   -5.1173406697
     C     3.5669844945    2.1566760703   -4.3351976761
     C     2.8256757774    3.1945990603   -3.4999088423
     I    -1.3159677221   -2.1500872078   -0.3837088480
     H     4.8322480811   -0.0128680513   -0.8069135910
     H     3.1355358613   -0.2555363519   -1.2589856512
     H     3.7920355388    1.3869229599   -1.1306694706
     H     4.7543799324   -0.6999923723   -3.1831322621
     H     5.3324035735    0.9459788809   -3.0478220087
     H     3.0276420096   -1.7470108382   -3.0599117979
     H     1.1219676036   -3.1258169075   -3.6511084575
     H    -0.5691611443    0.1228995520   -5.9128834292
     H     1.3283036194    1.5425133989   -5.3442442933
     H    -6.1633152581   -5.7796082742   -6.5921582092
     H    -5.9783253228   -2.7925716952   -7.3436938901
     H    -8.1830381167   -6.9993496251   -8.7847789760
     H    -6.6346967770   -6.2256094690   -8.4926228518
     H    -8.2176898322   -5.9263941447  -11.1100894761
     H    -6.7795775208   -6.9298014337  -10.8521911796
     H    -6.6555325991   -5.1624388526  -10.7387814956
     H   -10.1665178250   -6.6145569359   -9.7718044875
     H   -12.4542605964   -5.8524389658  -10.2888339615
     H   -13.1934187500   -3.5593547601   -9.7255382340
     H   -11.6409341495   -1.9708259461   -8.6074844406
     H     3.2328102688    2.1852916776   -5.3760711862
     H     4.6359427049    2.3849793915   -4.3504917153
     H     1.7552362032    2.9723418721   -3.4432687586
     H     2.9465572482    4.1832608027   -3.9550955714
     H     3.2219804440    3.2382971948   -2.4809538775
