68
-1.8986826286396531e+03 frame 88   xyz file generated by TeraChem
    Br     1.6725992412    0.0350575784    2.5128013141
     C     3.1394752468    0.0747813539    1.2834510296
     C     3.9661782592   -0.9403147896    1.0171751479
     O     4.9752980268   -0.6458015359    0.1750238760
     C     4.9252776081    0.7914593383   -0.0281118933
     C     3.5603808691    1.2884050044    0.5118797396
     O     2.7068531313    1.6196776787   -0.5505292289
    Si     1.5181989564    2.8052403215   -0.7470734136
     C     1.8465126382    4.3945649125    0.2618024167
     C     3.2687263791    4.9239099199    0.0343327966
     C     0.8522938764    5.4533582786   -0.2467673042
     C     1.6007484954    4.1923037980    1.7633894742
     C     1.5938643509    3.1542898361   -2.5899468862
     C    -0.1615659664    2.0776107098   -0.3205659678
     C     6.0978009786    1.4248779225    0.6877084591
     O     7.2961917694    0.9179269010    0.1549890176
    Si     8.8064978224    1.4366154420    0.7046222335
     C    10.0285397927    0.4024917304   -0.3186873586
     C     9.8129098771    0.6743732981   -1.8133275309
     C    11.4656565185    0.7792317828    0.0631044324
     C     9.8018519716   -1.0889332542   -0.0382436542
     C     8.9925517138    3.2808703544    0.3875602822
     C     8.9529516724    1.0958945871    2.5481864843
     N     3.9157320129   -2.2670528782    1.4704613590
     C     2.8875844868   -3.1028676052    1.0796114205
     C     2.8093602881   -4.3817765825    1.4913631345
     C     3.8257250368   -4.9247134913    2.3702841774
     O     3.8648558800   -6.0648788012    2.8079237217
     N     4.8235165642   -4.0063044375    2.7097884152
     C     4.9318878057   -2.6921465216    2.3357972840
     O     5.8153491846   -1.9494443191    2.7195275814
     H     4.9902203275    0.9561758593   -1.1058974124
     H     3.7086637285    2.1478585232    1.1762631791
     H     3.4717479031    5.1005342210   -1.0289865844
     H     4.0382084569    4.2401282687    0.4114115063
     H     3.3972657651    5.8817641244    0.5590786073
     H     1.0148140914    5.6936296474   -1.3039024820
     H     0.9782162431    6.3835486341    0.3261063896
     H    -0.1905281020    5.1342232703   -0.1282746916
     H     2.2952574394    3.4742481676    2.2145498063
     H     0.5819232372    3.8402342130    1.9634132946
     H     1.7318193611    5.1471721600    2.2932286292
     H     2.5356280803    3.6393417743   -2.8709145660
     H     0.7695943065    3.8025098329   -2.9077921926
     H     1.5180128112    2.2167308343   -3.1530848331
     H    -0.2422379064    1.7987557367    0.7350313630
     H    -0.3455041917    1.1788014749   -0.9211686133
     H    -0.9601174605    2.7953036646   -0.5440835436
     H     6.0224828643    2.5146081413    0.5510518976
     H     6.0172856102    1.2153847721    1.7649458530
     H     9.9896921359    1.7273972692   -2.0641319448
     H     8.7949913310    0.4165948252   -2.1273023388
     H    10.5108679347    0.0712019642   -2.4125410484
     H    11.6768397407    1.8369499323   -0.1369000600
     H    12.1805294060    0.1836634971   -0.5232557036
     H    11.6701928828    0.5874564226    1.1236750938
     H     8.7822630067   -1.3974186908   -0.2966465294
     H     9.9738874619   -1.3341211742    1.0168484595
     H    10.4971165429   -1.6968174914   -0.6358083256
     H     8.8934311127    3.5217777919   -0.6769339805
     H     9.9752726982    3.6337459486    0.7227024487
     H     8.2343470525    3.8537308088    0.9347186320
     H     8.7736073502    0.0400046710    2.7806006228
     H     8.2322407168    1.6935129901    3.1188099322
     H     9.9548129020    1.3555629598    2.9106345308
     H     2.1607335198   -2.6511485438    0.4136776735
     H     1.9986979444   -5.0235028680    1.1718040630
     H     5.5498367204   -4.3373119330    3.3365990224
