72
-1.9634320052691724e+03 frame 35   xyz file generated by TeraChem
     C     0.8452940518   -0.2945424036    1.6557459405
     C     0.2158479644    0.7502836336    1.1008676404
     C    -1.1914370884    0.7794432330    0.7672235101
     C    -1.8813759243    1.8177606664    0.2651708262
     O    -3.2133163180    1.6482329117    0.1094249462
     C    -3.5279874256    0.3722295384    0.7176361606
     C    -2.1802525808   -0.3427570266    0.9810462517
     O    -1.9745564254   -1.4956904124    0.1953988807
    Si    -1.7599066292   -1.6616769155   -1.4715965595
     C    -2.0102482849   -3.5311365418   -1.7472861643
     C    -3.4502325425   -3.9294189813   -1.4013048064
     C    -1.7385208956   -3.8656978254   -3.2207370916
     C    -1.0411821307   -4.3298133248   -0.8668924544
     C    -3.0151773197   -0.6652747526   -2.4586588308
     C    -0.0289321954   -1.1360709491   -1.9848633753
     C    -4.3004250951    0.6135140203    2.0028391752
     O    -5.4868992379    1.3450925337    1.8416469616
    Si    -6.8847231941    0.9781099076    0.9730820157
     C    -7.5574739269   -0.7651196107    1.3740952015
     C    -7.6726253712   -0.9492348649    2.8921630354
     C    -8.9550576274   -0.8741429407    0.7450413422
     C    -6.6749486475   -1.8784435784    0.7932042390
     C    -8.0690992588    2.3120873549    1.5583947923
     C    -6.6081771988    1.1808866186   -0.8787436646
     N    -1.4116295837    3.1074743081   -0.0660934958
     C    -1.4124717119    4.0980509904    0.8956422225
     C    -1.0198368856    5.3592931727    0.6341594751
     C    -0.5906977614    5.7191334541   -0.7015032736
     O    -0.2151178237    6.8233743692   -1.0670014975
     N    -0.6388040447    4.6568017694   -1.6092239812
     C    -1.0383049164    3.3635766607   -1.3869933346
     O    -1.0613252546    2.5119804475   -2.2579847965
     H     1.9016370792   -0.2436455537    1.9019855301
     H     0.3301171088   -1.2269545500    1.8722600288
     H     0.7751030218    1.6618168565    0.8909847397
     H    -4.1264892447   -0.1849837709   -0.0047450777
     H    -2.1441856298   -0.6909938744    2.0219359824
     H    -4.1794337987   -3.4147143819   -2.0388744491
     H    -3.6949073863   -3.7040134551   -0.3565141297
     H    -3.5911466124   -5.0104705648   -1.5496367380
     H    -2.4079082426   -3.3199382198   -3.8974162519
     H    -1.8987912391   -4.9394185000   -3.3977566454
     H    -0.7058251044   -3.6362993413   -3.5099325024
     H    -1.2154235424   -4.1440824614    0.1990375320
     H     0.0050883127   -4.0834642166   -1.0858575699
     H    -1.1698696936   -5.4080208626   -1.0433787691
     H    -4.0484470969   -0.9559004487   -2.2396698754
     H    -2.8418985984   -0.8344193708   -3.5288613476
     H    -2.9133344430    0.4101627236   -2.2769743564
     H     0.7437108390   -1.6668822999   -1.4182693829
     H     0.1151415191   -0.0618591528   -1.8300519458
     H     0.1268312965   -1.3442171530   -3.0504404526
     H    -3.6581446857    1.1771505608    2.6927827334
     H    -4.4896711668   -0.3672258941    2.4633445152
     H    -8.3152494703   -0.1866605203    3.3488062554
     H    -6.6935794351   -0.9019890776    3.3838414828
     H    -8.1113360176   -1.9312477560    3.1234949946
     H    -9.6473979519   -0.1255668539    1.1481876653
     H    -9.3852292716   -1.8656473719    0.9505930966
     H    -8.9227467622   -0.7529006514   -0.3448388448
     H    -5.6788691839   -1.9003409799    1.2501907801
     H    -6.5461305633   -1.7777039371   -0.2913137741
     H    -7.1376649154   -2.8589563606    0.9793162503
     H    -8.2823893787    2.2248294867    2.6296105146
     H    -9.0206883467    2.2669788387    1.0173403729
     H    -7.6317062771    3.3018746884    1.3822984755
     H    -6.0003125536    0.3845423151   -1.3208724548
     H    -6.1141878341    2.1372248948   -1.0865715413
     H    -7.5741508354    1.1873366941   -1.3987116872
     H    -1.7465504253    3.7772666879    1.8764125729
     H    -1.0199994533    6.1176098904    1.4063111607
     H    -0.3563119679    4.8624276911   -2.5620850342
