49
-1.2594092641505158e+03 frame 97   xyz file generated by TeraChem
     C    -0.3286734460   -0.6889449566    1.6409932943
     C    -0.3830161480   -1.7692990474    0.5817991252
     O    -1.5632844652   -1.5601689327   -0.1912873411
     C    -1.7937571201   -2.3516253025   -1.2594597390
     C    -0.9691883444   -3.4137469057   -1.6353516416
     C    -1.2543566696   -4.1939132923   -2.7561839839
     C    -0.3212560078   -5.3201893152   -3.1119567066
     C    -2.4041283201   -3.8974844374   -3.5244356995
     C    -3.2251331038   -2.8264080317   -3.1130126959
     C    -2.9530794584   -2.0464043081   -2.0046170414
     C    -3.8391948908   -0.9108799086   -1.5860691678
     C    -2.7154845755   -4.6860468013   -4.7031479872
     C    -3.7048477002   -4.4414140539   -5.5970076499
     C    -3.9902709479   -5.2827931731   -6.7435545829
     C    -3.5639739334   -6.6305647554   -6.7812126334
     C    -3.8523023095   -7.4754300706   -7.8320656907
     C    -4.6260405307   -6.9993239780   -8.8921934715
     C    -5.1002296650   -5.7003708450   -8.9062424960
     C    -4.7660369197   -4.8612238941   -7.8527727436
     N    -5.2485428449   -3.4906584999   -7.9831575717
     O    -4.5893428594   -2.5888527309   -7.4856782707
     O    -6.2812237062   -3.3117486693   -8.6133410756
     N    -4.9497927662   -7.8785106523   -9.9967370782
     O    -4.5093868462   -9.0200104175   -9.9661136015
     O    -5.6456811339   -7.4371606293  -10.9019723315
     C     0.9108888253   -0.8095735214    2.5226173877
     C     0.9907974306    0.2953792015    3.5686918858
     H    -1.2346181314   -0.7457542391    2.2585929018
     H    -0.3399661159    0.2910177735    1.1459499751
     H    -0.4134519640   -2.7683775263    1.0373111730
     H     0.4981733114   -1.7181017778   -0.0720458486
     H    -0.0854705556   -3.6473812800   -1.0515075837
     H     0.4903304029   -5.3935416047   -2.3829020819
     H     0.1307259222   -5.1761183891   -4.1004937443
     H    -0.8385338092   -6.2868661304   -3.1316550253
     H    -4.1215826189   -2.5946583293   -3.6822153086
     H    -4.6796503857   -0.7984338698   -2.2767090089
     H    -3.2851105256    0.0347261253   -1.5584607388
     H    -4.2395758024   -1.0690385785   -0.5775808223
     H    -2.0576463138   -5.5320425831   -4.8841641767
     H    -4.3166160565   -3.5549242663   -5.4854000557
     H    -3.0132131543   -7.0281644269   -5.9360720152
     H    -3.5061654456   -8.5025314729   -7.8317902172
     H    -5.7002361942   -5.3355440446   -9.7299982029
     H     1.8091930903   -0.7838822469    1.8905714404
     H     0.9116996480   -1.7894655982    3.0192223459
     H     1.0220387254    1.2837195839    3.0947860769
     H     1.8883458338    0.1926186659    4.1882785650
     H     0.1198129342    0.2732315835    4.2346151295
