115
-2.5707228892101648e+03 frame 72   xyz file generated by TeraChem
     C     2.2456684031    3.0046028118    3.1994723969
     C     1.8028201794    1.8079835821    2.3679820471
     C     2.4247183675    1.7157580333    0.9550358592
     C     1.8719682358    0.4485401218    0.2636452907
     C     2.4000127656    0.1831446447   -1.1404809821
     C     2.1570915609    2.9678492611    0.1363764483
     C     0.9352805774    3.5031066751   -0.2484344812
     C     0.9068432832    4.6757140080   -1.0118509751
     C     2.1087517780    5.3001689590   -1.3681885669
     C     3.3373998756    4.7697800668   -0.9853838943
     C     3.3572799982    3.5987582564   -0.2295964727
     C     4.4714864239    2.8214508256    0.3145586052
     C     3.9434953367    1.7168257001    1.0067778333
     C     4.7899887123    0.8016444585    1.6115162569
     C     6.1780474047    0.9848797084    1.5360821829
     C     6.6935976151    2.0891869952    0.8514895084
     C     5.8478535649    3.0113699480    0.2354177178
     C     7.0688545047   -0.0234086693    2.2314357163
     N     8.4694805746    0.0550729205    1.8573229911
     C     9.4324466218    0.8481522010    2.4199073505
     N    10.5592838620    0.7864970752    1.7382360421
     C    10.3349243086   -0.0790618936    0.6955487933
     C     9.0331982656   -0.5500280860    0.7478570584
     C     8.3248110556   -1.5634730075   -0.0565170864
     C     8.7649730360   -2.8940692791   -0.0228172206
     C     8.1265371163   -3.8701722177   -0.7821695333
     C     7.0362979417   -3.5315427169   -1.5826301817
     C     6.5908620399   -2.2116526895   -1.6233134648
     C     7.2319106383   -1.2319042037   -0.8689038391
     C    11.4075024698   -0.3838469113   -0.2605956101
     C    12.7428100748   -0.1822899629    0.1202330266
     C    13.7848956956   -0.4462581381   -0.7623292607
     C    13.5159652501   -0.9179903231   -2.0465459696
     C    12.1927424975   -1.1139928863   -2.4395831371
     C    11.1482329031   -0.8460526434   -1.5596353929
     C     9.2529153754    1.6673070445    3.6308219787
     C     8.7734175052    1.1212923898    4.8289156988
     C     8.6556636983    1.9154345024    5.9663829104
     C     9.0253262495    3.2585996015    5.9251523424
     C     9.5214087555    3.8042219786    4.7418734412
     C     9.6353845717    3.0144383835    3.6019353413
     C    -0.3902247279    5.2759249296   -1.5078960710
     N    -1.5512065486    4.9349884709   -0.6996723081
     C    -1.8030536898    5.3258871026    0.5876077091
     N    -2.8906766234    4.7465882893    1.0573711785
     C    -3.3745005486    3.9508868534    0.0500664005
     C    -2.5539613119    4.0513543908   -1.0625303756
     C    -2.6656406200    3.4604116284   -2.4074144554
     C    -3.7865409950    3.7504524098   -3.1981972386
     C    -3.9263800697    3.1842307658   -4.4614831497
     C    -2.9454147442    2.3261912767   -4.9573859646
     C    -1.8251189526    2.0341398503   -4.1817590890
     C    -1.6870416111    2.5929338316   -2.9135617801
     C    -4.5863900399    3.1460925999    0.2579076960
     C    -5.5172278758    3.5444707289    1.2290280970
     C    -6.6640269339    2.7943287484    1.4688108517
     C    -6.9059181889    1.6285468331    0.7431546574
     C    -5.9836285050    1.2174777047   -0.2181235676
     C    -4.8333555332    1.9640167402   -0.4562071761
     C    -0.9660677032    6.2388508067    1.3831788048
     C    -0.5254499977    7.4764919204    0.8978318703
     C     0.2380954691    8.3166759586    1.7041848569
     C     0.5641707283    7.9373662977    3.0049436296
     C     0.1138833090    6.7146424111    3.5017600933
     C    -0.6470885718    5.8721921185    2.6978013311
     H     1.7472562421    2.9980930065    4.1749740569
     H     1.9963261035    3.9492175363    2.7040914692
     H     3.3268353433    2.9908819047    3.3761376258
     H     0.7105283296    1.8223156949    2.2526769828
     H     2.0433378979    0.8778624262    2.8999752957
     H     0.7772186765    0.5339789566    0.2364224181
     H     2.0966816502   -0.4108012808    0.9096127733
     H     2.1742260004    1.0151449935   -1.8166270726
     H     1.9408540950   -0.7204295489   -1.5556725690
     H     3.4858348369    0.0360826069   -1.1372847894
     H     0.0049828895    3.0202483932    0.0444299472
     H     2.0778590071    6.2171077300   -1.9528822815
     H     4.2604058319    5.2705703864   -1.2673154308
     H     4.3879833114   -0.0613256457    2.1405184081
     H     7.7691375107    2.2303125476    0.7878662598
     H     6.2670644927    3.8610675144   -0.2979815372
     H     6.7247172150   -1.0394631548    2.0172971518
     H     6.9993380046    0.1108015016    3.3132785609
     H     9.6118073311   -3.1566081602    0.6056562119
     H     8.4785901801   -4.8977370438   -0.7452708526
     H     6.5366516763   -4.2941726989   -2.1741631493
     H     5.7455025146   -1.9398644554   -2.2502551760
     H     6.8922115589   -0.2010426014   -0.9170691237
     H    12.9519843708    0.1845015014    1.1207663371
     H    14.8121365503   -0.2858885309   -0.4442716867
     H    14.3296224873   -1.1261138402   -2.7363885167
     H    11.9693826846   -1.4690277452   -3.4425666960
     H    10.1229722687   -0.9823383458   -1.8898142464
     H     8.5209600013    0.0652921409    4.8819804823
     H     8.2860091906    1.4787582520    6.8902618209
     H     8.9336648586    3.8764977646    6.8143919835
     H     9.8170417188    4.8493715468    4.7048334744
     H    10.0194215741    3.4368209080    2.6775295026
     H    -0.6028727202    4.9253239770   -2.5227825887
     H    -0.2981183740    6.3620755794   -1.5733314822
     H    -4.5474267603    4.4237435821   -2.8127880098
     H    -4.8010454160    3.4179966742   -5.0626900815
     H    -3.0539766379    1.8862269758   -5.9451375480
     H    -1.0584861659    1.3631857533   -4.5600353878
     H    -0.8197580322    2.3462564153   -2.3058942943
     H    -5.3286343100    4.4519432128    1.7949184352
     H    -7.3733812797    3.1235481194    2.2240786885
     H    -7.8022448801    1.0425746651    0.9288723223
     H    -6.1536364876    0.3028833193   -0.7806967609
     H    -4.1127004072    1.6179355311   -1.1906572557
     H    -0.8049573823    7.8017433418   -0.0999665704
     H     0.5697813326    9.2761461945    1.3164954234
     H     1.1610450602    8.5947774073    3.6314098932
     H     0.3586989003    6.4139707288    4.5170239123
     H    -1.0004667160    4.9183823738    3.0790497429
