26
-9.1322075412798358e+02 frame 12   xyz file generated by TeraChem
     O     1.0187222034    0.1727459437    0.0642505339
     C     2.2335091041    0.1223049110    0.0653693382
     C     2.9916673138   -1.1416841371    0.0652885604
     C     2.2780939611   -2.3446379819    0.0644962873
     C     2.9411282212   -3.5650194586    0.0644512938
     C     4.3298174667   -3.5786686257    0.0651132982
     C     5.0581556145   -2.3845493145    0.0658559611
     C     4.3991109062   -1.1411738940    0.0660251667
     C     5.1577699364    0.1191719127    0.0668530185
     C     4.4986947104    1.3625584447    0.0672296817
     C     3.0271060292    1.4407809438    0.0670560328
     O     2.4147102414    2.4908413450    0.0683004285
     C     5.2269230004    2.5567400301    0.0679395796
     C     6.6156010052    2.5430726741    0.0682862074
     C     7.2786037496    1.3226765036    0.0680560098
     C     6.5652019191    0.1196470175    0.0673770322
     C     7.3234931925   -1.1442641104    0.0672977176
     O     8.5382813400   -1.1949296658    0.0679304645
     C     6.5297746135   -2.4626501223    0.0663991285
     O     7.1422150179   -3.5126771207    0.0661226678
     H     1.1933152949   -2.2979506895    0.0639510786
     H     2.3819531509   -4.4952046748    0.0639000438
     H     4.8785409022   -4.5157213586    0.0650624589
     H     4.6781705172    3.4937880994    0.0681943134
     H     7.1747732350    3.4732593249    0.0687690271
     H     8.3633776573    1.2760340399    0.0684046714
