35
-7.2822414632344885e+02 frame 27   xyz file generated by TeraChem
     C     3.1620851440    3.1051759737    1.6680953812
     C     2.5633700550    2.1344048912    0.6611880936
     N     2.8325982202    0.7329042286    0.9709439337
     C     2.2619458525    0.2873881778    2.2431087452
     C     0.7523856325    0.3628962918    2.3534249530
     C    -0.0700731477   -0.7009864156    1.8946393724
     C    -1.4366147841   -0.5947048600    1.9675565389
     C    -2.0213073999    0.5788727223    2.5026852507
     C    -1.1156428287    1.5793873511    2.9400028407
     N     0.2331277973    1.4651013335    2.8657486260
     C    -1.6159175117    2.7910968245    3.5022418556
     O    -0.7261850732    3.7174912300    3.9083135265
     C    -2.9752965919    2.9849724029    3.6157645914
     C    -3.8657982521    1.9803082902    3.1755896199
     C    -3.4142035131    0.7993468652    2.6301245125
     C     2.5031541363   -0.1544205360   -0.1424078691
     C     3.4947625151   -0.0559934849   -1.2947271005
     H     3.0590677688    4.1312348732    1.2988435396
     H     4.2279814089    2.8991814622    1.8170588359
     H     2.6597230753    3.0517955140    2.6389838794
     H     3.0069405567    2.3371365597   -0.3187071378
     H     1.4800335951    2.3299701987    0.5581859526
     H     2.6894518855    0.8937645607    3.0473476868
     H     2.5838463107   -0.7483980359    2.4026456174
     H     0.3952068751   -1.5986192258    1.4981164593
     H    -2.0781226796   -1.4037006506    1.6256153709
     H     0.1529600517    3.3282919427    3.7118829478
     H    -3.3517504703    3.9095094698    4.0435542512
     H    -4.9339596912    2.1542182149    3.2752342349
     H    -4.1087580180    0.0331828164    2.2962751763
     H     1.4779621139    0.0165246487   -0.5204444941
     H     2.5231054722   -1.1810268456    0.2426095269
     H     3.4664310951    0.9195687313   -1.7906147761
     H     3.2619925481   -0.8136149080   -2.0511135959
     H     4.5154775853   -0.2277916683   -0.9362563592
