58
-2.0806494230131602e+03 frame 67   xyz file generated by TeraChem
     C     2.7117189902   -0.6256428232   -0.0832239810
     C     3.6378332315    0.1541391816    0.8429707169
     N     3.4680109414    1.6059316551    0.7705717210
     C     2.5132593627    2.2424051757    1.4807426461
     C     1.6157003527    1.5206950463    2.3348236191
     C     0.6629823801    2.1652614221    3.0732247931
     C     0.5250882606    3.5778697707    3.0154304144
     C     1.4020364656    4.2956891529    2.1663941575
     C     2.3585251666    3.6611388460    1.4182716468
     N    -0.3921559817    4.3155268653    3.6913457741
     N    -1.1885408047    3.6513250347    4.4587194507
     C    -2.1041115796    4.4283045392    5.0974356318
     N    -2.2957141563    5.7388748731    5.0231830789
     C    -3.3131914998    6.0873488951    5.8121495549
     C    -3.9700443716    5.0954154579    6.5402673199
     S    -3.1934328369    3.5825264749    6.1634742531
     C    -5.0701147215    5.2660066929    7.4184159293
     C    -5.7206056359    4.2614940183    8.0739333613
     C    -6.8877696954    4.4177875560    8.8800885641
    Se    -8.2099224932    3.0523054882    8.8307248115
     C    -9.2291632117    4.1998375526    9.9648499528
     C    -8.5131816919    5.3685667909   10.2497275946
     N    -7.2310714046    5.4293008340    9.6805494973
     C    -6.2759749838    6.4480457668   10.1708708984
     C    -5.8563668599    6.1690700528   11.6055489544
     C    -9.0909323320    6.3671023170   11.0397643554
     C   -10.3706458729    6.1610306791   11.5329182687
     C   -11.0745814608    4.9835090390   11.2541444579
     C   -10.5095485185    3.9905817009   10.4638297663
    Cl    -3.7570325162    7.7519699667    5.8855585322
     C     4.3317041613    2.3337042641   -0.1600557691
     C     3.6669600651    2.6675643887   -1.4913198820
     I    -2.2001812330   -0.0967382477    0.2738601122
     H     2.8808071826   -1.6991535703    0.0525227527
     H     2.9045663825   -0.3805955946   -1.1320802017
     H     1.6581991274   -0.4164762904    0.1304356941
     H     4.6805014271   -0.0549124911    0.5897298719
     H     3.5066973352   -0.1640641457    1.8808363330
     H     1.6704172583    0.4407289651    2.3935807509
     H    -0.0102243116    1.5958309044    3.7051686140
     H     1.2946137564    5.3756421885    2.1163630069
     H     2.9973437260    4.2553146786    0.7772066702
     H    -5.4246853748    6.2907082771    7.5014360478
     H    -5.4401714321    3.2278777331    7.8821252198
     H    -6.7485816434    7.4258678079   10.0521640407
     H    -5.4022598081    6.4284512457    9.5275090035
     H    -6.6971343085    6.1914983350   12.3031955611
     H    -5.1401152776    6.9386208149   11.9092355759
     H    -5.3657041161    5.1936133106   11.6760624129
     H    -8.5628801004    7.2888796046   11.2574803401
     H   -10.8309959822    6.9322490673   12.1427379947
     H   -12.0751015001    4.8447591115   11.6523685257
     H   -11.0521530322    3.0790289918   10.2353684270
     H     5.2100570163    1.7070918287   -0.3313473848
     H     4.6948602715    3.2435599683    0.3287551089
     H     3.3781879315    1.7584773491   -2.0267993046
     H     4.3703159933    3.2251802115   -2.1187049187
     H     2.7728795362    3.2831304500   -1.3518233428
