61
-2.1487708145487486e+03 frame 121   xyz file generated by TeraChem
     C     4.1844935845    0.3772715680   -2.0148062545
     C     3.1469372524    0.9102044097   -1.0328794659
     N     2.1701453227    1.8204754578   -1.6339254183
     C     1.1474252239    1.3585529169   -2.3846033394
     C     0.9113223948   -0.0483923886   -2.5247243872
     C    -0.1357548445   -0.5233636223   -3.2644394194
     C    -1.0203541152    0.3638062975   -3.9316550483
     C    -0.7924495595    1.7537711221   -3.8004133798
     C     0.2524366511    2.2432048701   -3.0596383521
     N    -2.0722244044   -0.0090472796   -4.7053231022
     N    -2.2737038610   -1.2703229480   -4.8432892701
     C    -3.3407214897   -1.5338844113   -5.6444727070
     N    -3.7095789170   -2.7695905884   -5.9209453410
     C    -4.7719829409   -2.7533694327   -6.7382834378
     C    -5.2830276386   -1.5269445331   -7.1363092005
     S    -4.3152336910   -0.2764276490   -6.3960574302
     C    -6.3865979435   -1.3029996333   -8.0102450231
     C    -6.9202992370   -0.0948624010   -8.3230868841
     C    -8.1152220209    0.1067623335   -9.1195529615
     C    -9.0291889076    1.0831803775   -8.6608846657
     C   -10.2461743961    1.2411236912   -9.2599942555
     C   -10.6167313355    0.4000581733  -10.3343153057
     C    -9.6694431957   -0.5405082553  -10.8189636910
     N    -8.4076668484   -0.6043338904  -10.2358603933
     C    -7.3410961654   -1.3133047755  -10.9893917694
     C    -6.9935602670   -0.5858880412  -12.2798130228
     C   -10.0359102002   -1.3974627864  -11.8759143151
     C   -11.2975210864   -1.3056373310  -12.4265804050
     C   -12.2338069497   -0.3616552601  -11.9653925715
     C   -11.8952291127    0.4767436465  -10.9302367373
    Cl    -5.4303274868   -4.2668360502   -7.2435260712
     C     2.4005074170    3.2545632153   -1.4631929374
     C     3.2006711021    3.8940628941   -2.5926204876
     I     2.3013628911   -3.4231578269   -0.2191326999
     H     4.8721954449   -0.2930268040   -1.4884327758
     H     4.7691427176    1.1910562109   -2.4541482030
     H     3.7164467853   -0.1877044923   -2.8270873523
     H     3.6436928290    1.4652048532   -0.2334968333
     H     2.6184448198    0.0818872733   -0.5495881254
     H     1.5568291080   -0.7652605987   -2.0295212964
     H    -0.2985212114   -1.5931588186   -3.3474184090
     H    -1.4650910431    2.4349560812   -4.3142248703
     H     0.3948560979    3.3153268074   -3.0077832344
     H    -6.8352559488   -2.2101220807   -8.4112922046
     H    -6.5540159174    0.8035206884   -7.8308397465
     H    -8.7440029025    1.6753954970   -7.7985784402
     H   -10.9498981312    1.9875718405   -8.9019898575
     H    -7.6575697321   -2.3447327328  -11.1555830858
     H    -6.4611714003   -1.3463729903  -10.3564849041
     H    -7.8307600647   -0.5315074085  -12.9793657514
     H    -6.1765701208   -1.1276379991  -12.7661865598
     H    -6.6507973650    0.4301980531  -12.0617670110
     H    -9.3514374390   -2.1459530357  -12.2539240176
     H   -11.5689506761   -1.9839749031  -13.2300506098
     H   -13.2176387060   -0.3059946245  -12.4206564794
     H   -12.6006479077    1.2073219307  -10.5444513675
     H     2.9291544056    3.3801539835   -0.5146107096
     H     1.4347133660    3.7539397892   -1.3441858763
     H     4.2053508887    3.4656840246   -2.6571021231
     H     3.2998205731    4.9687789334   -2.4067376304
     H     2.7061622573    3.7586510506   -3.5598669479
