58
-2.4802609340083859e+03 frame 92   xyz file generated by TeraChem
     C     3.4022816954   -0.8636713702   -0.2518479127
     C     4.1101883366   -1.3137834162    1.0209482074
     N     3.7948697636   -0.5020951487    2.1976751174
     C     2.6721611467   -0.7095872780    2.9174115246
     C     1.7501565409   -1.7517836589    2.5703145044
     C     0.6367906178   -1.9976299189    3.3243226765
     C     0.3495167720   -1.2186559478    4.4774166712
     C     1.2429009975   -0.1717000787    4.8105176952
     C     2.3597808478    0.0873934033    4.0605481648
     N    -0.7146877644   -1.3811194577    5.3034842295
     N    -1.5334905061   -2.3260864884    4.9856512850
     C    -2.5643049528   -2.4683826506    5.8627288223
     N    -2.8063935027   -1.8126076409    6.9893640043
     C    -3.9194899274   -2.2858701888    7.5527169177
     C    -4.6066478433   -3.3190844719    6.9175916911
     S    -3.7264384346   -3.7056810205    5.4653620470
     C    -5.7914580077   -3.9584147137    7.3661377063
     C    -6.4949819856   -4.9014585014    6.6796468209
     C    -7.7115406668   -5.5051316422    7.1341316006
     S    -8.9670664961   -5.8157362129    5.9875096345
     C   -10.0008268950   -6.4377960521    7.2376678374
     C    -9.3489321437   -6.3857637768    8.4748521447
     N    -8.0532421959   -5.8781175731    8.3740658686
     C    -7.1177186216   -6.0147884164    9.5083557314
     C    -6.6850948204   -7.4608210299    9.6913389400
     C    -9.9961300267   -6.8173798626    9.6336741895
     C   -11.2913490205   -7.2973589886    9.5212434879
     C   -11.9269602501   -7.3462398323    8.2734403919
     C   -11.3019235453   -6.9199299172    7.1118826096
     I   -13.9103206885   -8.0923777022    8.1765127428
    Cl    -4.4420235535   -1.5879841442    9.0402448746
     C     4.7136899019    0.5900609575    2.5235118739
     C     4.2676069550    1.9524357712    2.0048583355
     I     0.2871848103    2.6626830088   -0.2434134898
     H     3.6790164971   -1.5286527675   -1.0768741641
     H     3.6904079061    0.1559764251   -0.5234156502
     H     2.3135110908   -0.8914109295   -0.1406552591
     H     5.1927736022   -1.2597949131    0.8819728616
     H     3.8818592816   -2.3606052675    1.2420935738
     H     1.9272442797   -2.3595896979    1.6917851381
     H    -0.0435510953   -2.7953275536    3.0450882351
     H     1.0179738307    0.4324657802    5.6849598376
     H     3.0051466778    0.9066336316    4.3502116451
     H    -6.1607416407   -3.6003774203    8.3243705088
     H    -6.2150318742   -5.1581418765    5.6601039008
     H    -7.6216328312   -5.6141806700   10.3910855742
     H    -6.2538457118   -5.3853913498    9.3182781650
     H    -7.5328733765   -8.1258773130    9.8752427788
     H    -6.0126566544   -7.5153761674   10.5526474186
     H    -6.1451391710   -7.8134554673    8.8074036977
     H    -9.5156127185   -6.7800486958   10.6050503224
     H   -11.8083564664   -7.6330822571   10.4134476181
     H   -11.7931321838   -6.9528218820    6.1458843478
     H     5.6827381005    0.3265177489    2.0928813990
     H     4.8593369697    0.6171622570    3.6079860985
     H     4.2139185847    1.9606162296    0.9124519311
     H     4.9879898536    2.7152146930    2.3187490538
     H     3.2832275736    2.2301252437    2.3952201534
