63
-1.2332308043222165e+03 frame 134   xyz file generated by TeraChem
     C     1.8941603319   -0.6649018062    0.3079138517
     C     2.6556191260    0.5760690996    0.7281105789
     N     2.7386334890    0.8529015342    2.2396642890
     C     3.9773721517    1.6503051403    2.4911093690
     C     4.1540213587    2.8355998610    1.7711275600
     C     5.2745505820    3.6173097171    1.9922385416
     C     6.2465995895    3.2458702318    2.9361590447
     C     6.0526426026    2.0467024884    3.6318862840
     C     4.9309193068    1.2501562138    3.4191524001
     C     7.4324072960    4.0465294424    3.2286914551
     C     7.7125290732    5.2588445122    2.7107273005
     C     8.8825028251    6.0671880585    3.0182608111
     C     9.9013441861    5.6511106314    3.9283511399
     C    10.9693872887    6.4459979689    4.2039989669
     N    11.0731599228    7.6677655747    3.5958265640
     C    10.1174667779    8.0989589048    2.7153265318
     C     9.0094244150    7.3096285149    2.4102413884
     N    10.4869402885    9.3270114184    2.2874178775
     C     9.7661659942   10.0688197849    1.2645964319
     C    11.6736406235    9.6816106107    2.9115869604
     C    12.0390269279    8.6433676279    3.7211737557
     C    12.3669821295   10.9580481482    2.7251802012
     C    11.6707913620   12.1745178687    2.7472977200
     C    12.3613570756   13.3747139251    2.6155927768
     C    13.7475481711   13.3738038047    2.4678421045
     C    14.4451648778   12.1669184610    2.4539350228
     C    13.7606889219   10.9628463134    2.5795823075
     C     1.5708472862    1.7125522101    2.7267157684
     C     0.1843063520    1.1491837940    2.5059761090
     C     2.7498918978   -0.4275751646    3.0041894564
     I     1.1201545930    4.2848494884   -0.6939990860
     I    -2.2909349796   -2.3483454085    0.7234691173
     H     1.8646531694   -0.6477525889   -0.7867664613
     H     0.8626571341   -0.6944953937    0.6635212776
     H     2.4019597384   -1.5850877935    0.6076129274
     H     2.2168365455    1.4758614757    0.2872807685
     H     3.6925347913    0.4989094425    0.3962766470
     H     3.4258760684    3.1663505665    1.0340046794
     H     5.3844150475    4.5297527722    1.4149899431
     H     6.7903313978    1.7262128929    4.3628159332
     H     4.8350077366    0.3340700608    3.9873171463
     H     8.1170784735    3.5941937695    3.9437840142
     H     7.0222708381    5.7164935723    2.0052788966
     H     9.8464681268    4.6905328322    4.4258508226
     H    11.7680585610    6.1858884676    4.8878850918
     H     8.2589777282    7.6783150182    1.7195469070
     H     9.4296033772    9.3741315305    0.4928507396
     H    10.4421856211   10.7953190009    0.8153860599
     H     8.9060596826   10.5840914551    1.6997229619
     H    12.8782264319    8.5343052993    4.3909719086
     H    10.5943665977   12.1834765724    2.8938072470
     H    11.8148818503   14.3132825034    2.6373955189
     H    14.2835981081   14.3133675339    2.3659489650
     H    15.5252180860   12.1614990293    2.3371997488
     H    14.3009127290   10.0205357030    2.5525696989
     H     1.6657189351    2.6675660365    2.2069224044
     H     1.7707454385    1.8731842634    3.7893716742
     H    -0.0749016058    1.0848479508    1.4467153193
     H    -0.5116145871    1.8574262364    2.9677133762
     H     0.0246353408    0.1787501769    2.9823382909
     H     3.6107366592   -1.0227658307    2.6982824690
     H     1.8340582334   -0.9720246169    2.7904206481
     H     2.7916672756   -0.2000328703    4.0691930254
