72
-1.7676140097756115e+03 frame 273   xyz file generated by TeraChem
     C    -0.6563798337   -1.2649979658    0.7927504748
     C    -0.3660166771   -2.5491746870    1.3302423660
     C     0.0103139243   -3.3933806762    0.2482989503
     C    -0.0766643909   -2.6429565810   -0.9620472559
     C    -0.4842964966   -1.3242281061   -0.6255653991
     C     1.2961855699   -1.0830202424    6.0432057128
     C     2.4845564598   -0.4871554749    5.2978544900
     C     2.4081846983   -0.7896091059    3.8182700131
     O     3.5612804333   -0.2050452082    3.1906759356
     C     3.6939575517   -0.3724554976    1.8784438722
     C     4.8484006004    0.1792626180    1.2395711156
     C     4.9885516234    0.0359528666   -0.1026448017
     C     3.9897421585   -0.6681584350   -0.8534764952
     N     2.9381976489   -1.1853665187   -0.1768172913
     N     2.8143174349   -1.0135093653    1.1635150399
     N     4.0707886893   -0.8399585571   -2.1688452509
     N     3.1475597641   -1.6011980446   -2.8444092002
     C     3.3700023950   -1.4449563220   -4.1401378451
     C     4.4720849286   -0.4426109285   -4.4120990799
     C     5.1253800387   -0.2787436888   -3.0319594881
     C     6.4387778500   -1.0163051546   -2.8955387010
     C     6.5266459625   -2.3101549808   -2.3919832159
     C     7.7520501063   -2.9732489223   -2.3224223932
     C     8.9027836033   -2.3299222465   -2.7620365804
     C     8.8407192810   -1.0339031306   -3.2749743486
     C     7.6104574703   -0.3804487406   -3.3479410904
     O     7.4366760381    0.8741728019   -3.8401440102
     C     8.5467740037    1.5192263660   -4.4556515857
     C     8.0727674578    2.8155004233   -5.0498212848
     C     6.9473630423    2.8449635527   -5.8792520006
     C     6.5252889304    4.0417749363   -6.4495366024
     C     7.2291020876    5.2213434324   -6.2045384334
     C     8.3521781371    5.1980668922   -5.3818958503
     C     8.7677200131    3.9999225076   -4.8029846163
     C     2.6573465535   -2.1041944775   -5.1527411504
     C     2.8550752927   -1.9199493400   -6.5638647717
     C     1.9590032065   -2.7328391594   -7.2303770884
     C     1.1848622965   -3.4477817295   -6.2558496737
     C     1.6039669931   -3.0685697143   -4.9960949600
    Fe     1.2461043455   -1.7788123552    0.3203623216
     H    -0.9059141504   -0.3779987887    1.3622382224
     H    -0.3448646620   -2.8123174054    2.3803382814
     H     0.3748992615   -4.4099444147    0.3355635360
     H     0.1954210394   -2.9920728873   -1.9495480768
     H    -0.5706597852   -0.4896688121   -1.3103040067
     H     1.3576853960   -0.8600008782    7.1126931043
     H     1.2624774290   -2.1728732405    5.9301278495
     H     0.3486615210   -0.6768512517    5.6705813442
     H     3.4235640933   -0.8907392078    5.6951394059
     H     2.5152904141    0.6000126791    5.4386790288
     H     1.5045207203   -0.3657297551    3.3641439026
     H     2.4108048055   -1.8695443738    3.6261915819
     H     5.5823872660    0.7035851713    1.8411974139
     H     5.8554925213    0.4432966072   -0.6099936269
     H     4.0422270103    0.5023480921   -4.7637082409
     H     5.1793590292   -0.7931912658   -5.1661572204
     H     5.2642721323    0.7773108822   -2.7876851454
     H     5.6191245742   -2.8088253223   -2.0598757746
     H     7.8013031645   -3.9842273269   -1.9289351462
     H     9.8649515519   -2.8325256265   -2.7113420682
     H     9.7487102481   -0.5454429920   -3.6116409764
     H     8.9557107052    0.8591207108   -5.2336656676
     H     9.3377160632    1.7020078772   -3.7167761949
     H     6.3993656959    1.9257473184   -6.0708251989
     H     5.6474510920    4.0548494974   -7.0902687248
     H     6.9001132443    6.1551959659   -6.6527402298
     H     8.9024615385    6.1138770192   -5.1825227630
     H     9.6390030559    3.9851223444   -4.1517380185
     H     3.5798559044   -1.2495864475   -7.0154799255
     H     1.8543517672   -2.8221009676   -8.3076929011
     H     0.4053739824   -4.1707543321   -6.4790908854
     H     1.2332293518   -3.4398702878   -4.0464650160
