61
-2.1487779661274908e+03 frame 78   xyz file generated by TeraChem
     C     3.4313819990   -2.2873611381   -0.0515500243
     C     2.7163643128   -1.0611701299   -0.6071209794
     N     2.9128658707    0.1509154245    0.1889049904
     C     2.2022524266    0.3765271427    1.3152189981
     C     1.1946143250   -0.5432776177    1.7540615091
     C     0.4407598642   -0.2954628227    2.8679167323
     C     0.6401188286    0.8809055060    3.6360415977
     C     1.6479029634    1.7827623164    3.2227192907
     C     2.4106765108    1.5449237035    2.1082306759
     N    -0.0651090407    1.2231446509    4.7461857988
     N    -0.9786177442    0.4064649991    5.1290083333
     C    -1.6389296114    0.8583225407    6.2303210829
     S    -1.2819828097    2.3993715886    6.9970236348
     C    -2.5415440133    2.0678564058    8.1601307929
     C    -3.0947445640    0.8360446139    7.8461854741
     N    -2.6089233596    0.1642052836    6.7911979903
    Cl    -4.3819556758    0.1153513251    8.7436698240
     C    -2.9203938572    2.9392052914    9.2247228254
     C    -2.2958543664    4.0994031981    9.5529152550
     C    -2.6266400012    4.9485851584   10.6761449127
     C    -1.5779739571    5.6101653502   11.3145495878
     C    -1.7936590515    6.3016700187   12.4898910049
     N    -3.0025541091    6.4013147195   13.0520554373
     C    -4.1148341494    5.8758221910   12.4200488168
     C    -3.9487570506    5.1606314628   11.1953546768
     C    -5.1144859291    4.7376978349   10.5128471365
     C    -6.3663289392    4.9366196454   11.0444304958
     C    -6.5055406783    5.5760333313   12.2882843988
     C    -5.4034443541    6.0528886585   12.9623209211
     C    -3.1164947981    7.1479538786   14.3231974115
     C    -3.5109861316    8.5987666936   14.1033883378
     C     3.9371325171    1.0925183655   -0.2624610204
     C     5.2773041219    0.9405485328    0.4472628879
     I    -0.2448990181    2.1195701022   -2.0766237176
     H     3.2300794338   -3.1507078437   -0.6946766988
     H     3.0893214995   -2.5295847101    0.9598614559
     H     4.5137951427   -2.1299969064   -0.0193491971
     H     1.6428321331   -1.2481737428   -0.7100929921
     H     3.0842889255   -0.8418799142   -1.6121673730
     H     1.0138004875   -1.4551646923    1.1988168810
     H    -0.3236039052   -1.0018846712    3.1750082405
     H     1.8088000950    2.6798293595    3.8141438200
     H     3.1756359636    2.2612394787    1.8371709550
     H    -3.7535536623    2.5841497392    9.8266287104
     H    -1.3882389017    4.3813970300    9.0204328561
     H    -0.5637932209    5.5321937824   10.9386424654
     H    -0.9767800846    6.7706646682   13.0269186522
     H    -5.0143094906    4.2837877201    9.5345638267
     H    -7.2465186078    4.6144785268   10.4969580186
     H    -7.4932089235    5.7264067741   12.7136338092
     H    -5.5439527019    6.5806985337   13.8971121673
     H    -2.1388076644    7.0812717698   14.8034294613
     H    -3.8220920145    6.6165900955   14.9636764392
     H    -2.7623222271    9.1133993270   13.4931761996
     H    -3.5677817361    9.0995393160   15.0745290344
     H    -4.4840707052    8.6895803164   13.6125327651
     H     3.5515186766    2.1113949700   -0.1532963560
     H     4.0659960717    0.9301795496   -1.3353208364
     H     5.1792570054    1.0766105337    1.5290259041
     H     5.9760625045    1.6956704584    0.0716124732
     H     5.7125512402   -0.0467973802    0.2640790274
