59
-2.0746414340253818e+03 frame 78   xyz file generated by TeraChem
     C     3.9064408694   -0.3680752073    1.3864932566
     C     3.6013887462    0.0197500129   -0.0506823547
     N     4.1256306892    1.3511100500   -0.3881846265
     C     5.3624431053    1.5663773420   -0.8692563693
     C     6.3227087328    0.5512757401   -1.1086208853
     C     7.5598185251    0.8142036536   -1.6328431454
     C     8.5799678765   -0.1405243398   -1.8753597451
     C     8.5881162469   -1.5130855261   -1.6395160819
     N     9.7047838765   -2.1824393608   -1.9588496373
     C    10.6201924141   -1.3604009972   -2.4579203324
     S    10.1213186390    0.3214735964   -2.5580361858
     N    11.8400148435   -1.8007212961   -2.8509687050
     N    12.5801241879   -0.8392861744   -3.2931809845
     C    13.8261452400   -1.1567743384   -3.7111093774
     C    14.3906681111   -2.4604531507   -3.7097192969
     C    15.6729408778   -2.6830879104   -4.1308980219
     C    16.2854582192   -4.0558200051   -4.0994003378
     C    17.2803231454   -4.2058838959   -5.2415241802
     C    18.3224288049   -3.1110509820   -5.1448928907
     N    17.7251014209   -1.7827195797   -5.0326983027
     C    16.4640839378   -1.5781382108   -4.6122569929
     C    15.8968432382   -0.2602596660   -4.6372792137
     C    14.6179682001   -0.0799532375   -4.1810027565
     C    16.7235885958    0.8813608423   -5.1593188733
     C    18.1912873336    0.6400832469   -4.8364713451
     C    18.6208827279   -0.6933234614   -5.4143123728
     S     5.6581712469    3.2535548522   -1.1485929450
     C     4.0653314944    3.6614448591   -0.5753679972
     C     3.3718461014    2.5072693386   -0.1903207444
     C     2.0751434798    2.5984561095    0.3199962614
     C     1.5041872111    3.8598108982    0.4204375021
     C     2.1989137902    5.0106486762    0.0257174317
     C     3.4909552856    4.9250449269   -0.4767534484
     H     3.4853082701   -1.3580491585    1.5858830772
     H     3.4630691625    0.3428746114    2.0901958110
     H     4.9854263336   -0.4099818547    1.5645299005
     H     2.5263568413    0.0505791528   -0.2380966003
     H     4.0179845664   -0.6939339375   -0.7630064042
     H     6.0509155715   -0.4646337330   -0.8439647599
     H     7.8083326321    1.8425164439   -1.8941455914
     H     7.7511939551   -2.0582122655   -1.2134865893
     H    13.7881013911   -3.2908791930   -3.3534403318
     H    16.8101695532   -4.2031389037   -3.1442124907
     H    15.4982471587   -4.8147088846   -4.1502409426
     H    17.7824063635   -5.1773107386   -5.2028577108
     H    16.7602289891   -4.1382299240   -6.2048832740
     H    18.9601728489   -3.1013141626   -6.0360435541
     H    18.9782427294   -3.2737175622   -4.2774633738
     H    14.1768106339    0.9138889440   -4.1809354135
     H    16.3687724794    1.8243311581   -4.7311373889
     H    16.6032957205    0.9600783043   -6.2495597765
     H    18.8246150150    1.4272653562   -5.2568137232
     H    18.3410892750    0.6379579537   -3.7498943987
     H    19.6223548260   -0.9646444960   -5.0619582566
     H    18.6637537418   -0.6463103226   -6.5118589317
     H     1.5257836444    1.7187725865    0.6371855827
     H     0.4973760110    3.9513122643    0.8162241644
     H     1.7251005795    5.9833344283    0.1153677642
     H     4.0389006733    5.8107386465   -0.7820258286
