68
-1.3857113605371283e+03 frame 101   xyz file generated by TeraChem
     C     1.2429350976    0.4272732386    3.0418770744
     O     2.0401978765   -0.3966424518    2.2045929427
     C     2.6119796356    0.1639097919    1.1202392251
     C     2.4966861010    1.5140963431    0.7712651116
     C     3.1219962726    1.9814895030   -0.3790967254
     C     3.8669694504    1.1265597837   -1.1982016253
     C     3.9850704473   -0.2246154436   -0.8302564771
     C     3.3658147719   -0.6995351036    0.3114372206
     C     4.5423795091    1.6689862391   -2.3747095115
     C     5.2556576803    2.8315445330   -2.4717343262
     N     5.7058308417    2.9286211442   -3.7707181262
     C     5.2795127178    1.8334910620   -4.4732798351
     N     4.5603762318    1.0655529469   -3.6240342376
     C     3.8551610600   -0.1398647929   -4.0284819130
     C     5.6002952873    1.6748153358   -5.8211350139
     C     6.3605530138    2.6515036006   -6.4509763748
     C     6.7892882262    3.7762815737   -5.6838500387
     C     6.4619854801    3.8991732608   -4.3698292790
     C     6.6769077086    2.4820919475   -7.8613856688
     C     7.4102855467    3.3278048787   -8.6112129031
     C     7.7194691141    3.1708242139  -10.0295914261
     C     7.2688089224    2.0956508139  -10.8131879873
     C     7.5903384584    2.0049006527  -12.1568218105
     C     8.3800642249    2.9891703744  -12.7583212337
     C     8.8346635033    4.0662748707  -12.0061453356
     C     8.5031725255    4.1463882316  -10.6570838598
     N     8.6895795748    2.8561721375  -14.2141096302
     C     7.3940851504    2.9293144232  -14.9691999971
     C     9.6173024518    3.9557994833  -14.6958532720
     C    10.0607242719    3.7809934376  -16.1382324112
     C    10.7368916290    2.4335448740  -16.3586754175
     C     9.8252363814    1.3106658434  -15.8815861834
     C     9.3856703544    1.5189095044  -14.4437584814
     I    -1.5997059694   -3.0449448863    2.6049274747
     I     1.3924441514    2.7969124310   -6.5208816252
     H     0.8649093531   -0.2268302067    3.8280979472
     H     0.3996334099    0.8542363646    2.4874258091
     H     1.8374810438    1.2338750535    3.4860763931
     H     1.9189238583    2.2018473253    1.3783921931
     H     3.0136303216    3.0273867209   -0.6532553503
     H     4.5848448434   -0.9042391301   -1.4291992149
     H     3.4569669471   -1.7416965798    0.6023956400
     H     5.4991782707    3.5732986160   -1.7267283836
     H     3.4367943850    0.0108875286   -5.0255531933
     H     3.0379297583   -0.3174124068   -3.3300280181
     H     4.5311188807   -0.9986249944   -4.0316257469
     H     5.2586108781    0.7964713068   -6.3575756056
     H     7.3853643306    4.5629596204   -6.1305110135
     H     6.7565035824    4.7286235399   -3.7385555579
     H     6.2599139192    1.5830682542   -8.3105593473
     H     7.8282573859    4.2249920837   -8.1583084356
     H     6.6534699501    1.3137245995  -10.3797398370
     H     7.2091565327    1.1586087720  -12.7185015346
     H     9.4391233170    4.8560563909  -12.4321956800
     H     8.8644081350    4.9939013165  -10.0808266961
     H     6.9212519293    3.8837783513  -14.7340883224
     H     6.7561043364    2.1027760142  -14.6595650639
     H     7.5891700202    2.8590821086  -16.0366505662
     H    10.4882194955    3.9211750893  -14.0360178538
     H     9.0892944612    4.9004818703  -14.5519640188
     H    10.7547061810    4.6042916082  -16.3412153349
     H     9.2193469432    3.9133271789  -16.8272573913
     H    11.6789377275    2.4017781870  -15.7949749121
     H    10.9866126833    2.3009987259  -17.4160615722
     H    10.3439307062    0.3456721175  -15.9056306796
     H     8.9539194461    1.2078749478  -16.5390405955
     H    10.2444750900    1.5253891548  -13.7658990061
     H     8.6938078717    0.7386304961  -14.1266430634
