64
-1.2713131543774721e+03 frame 162   xyz file generated by TeraChem
     C     1.2979044023   -0.2134258621    1.0445084240
     N     2.4728563081   -0.1595664044    0.1884363477
     C     3.1922028563   -1.2301459563   -0.3205033534
     C     4.2586391856   -0.7206334508   -1.0062130163
     N     4.1813624361    0.6524815307   -0.9205616045
     C     3.0756291775    0.9911947382   -0.1865149736
     C     2.7523257948    2.3260175952    0.0528027646
     C     3.5707967569    3.3180911670   -0.4722794469
     C     3.2095814515    4.7054535380   -0.2248364743
     C     3.8553277505    5.7900604511   -0.6960844865
     C     3.4678743495    7.1767558577   -0.4511258571
     C     2.4272748038    7.5499925044    0.4126565487
     C     2.0849181800    8.8826505470    0.5938729926
     C     2.7734942016    9.8800503162   -0.0957416190
     C     3.8315115930    9.5360188810   -0.9349105006
     C     4.1662929850    8.1999922026   -1.1079029724
     N     2.4660225409   11.3252034139    0.1259304969
     C     3.5089601169   11.8728988428    1.0557922615
     C     1.1057697576   11.5706550817    0.7536366376
     C    -0.0469846773   11.1811185138   -0.1548968878
     C     0.0258780833   11.9082642686   -1.4938285609
     C     1.4006388834   11.7094880050   -2.1233658880
     C     2.4998189495   12.1258846881   -1.1658510537
     C     4.7144549123    2.9261431935   -1.2319010368
     C     5.0023140553    1.6143533118   -1.4443644590
     C     2.8329537643   -2.6386080394   -0.1408659482
     C     1.5153216052   -3.0816838877   -0.3165308843
     C     1.2115630339   -4.4323932244   -0.1815414271
     C     2.2146939786   -5.3513124284    0.1213242822
     C     3.5289703082   -4.9164088638    0.2869470843
     C     3.8394955769   -3.5666456805    0.1587864205
     I    -2.4477324455   -1.9180879945   -1.4717945342
     I    -0.1841501416    4.4570792395    2.3056665603
     H     1.2945862823   -1.1653103030    1.5746142499
     H     0.3844428846   -0.1198679283    0.4508825005
     H     1.3497081162    0.5980406742    1.7725455427
     H     5.0391526353   -1.2160024290   -1.5630004561
     H     1.8693599992    2.5791987213    0.6330727395
     H     2.3202548900    4.8304479229    0.3917392120
     H     4.7337715115    5.6698038085   -1.3278403528
     H     1.8650975610    6.7990613163    0.9614556253
     H     1.2785109272    9.1117131001    1.2789493366
     H     4.4153456518   10.2851958774   -1.4578242069
     H     4.9886760773    7.9465876911   -1.7716771951
     H     3.4575206768   11.3188715704    1.9939667816
     H     3.3003272729   12.9308009681    1.2237199023
     H     4.4882559568   11.7474602438    0.5934554025
     H     1.0874578793   12.6457701630    0.9528210010
     H     1.0886587038   11.0600194416    1.7176774606
     H    -0.9689404483   11.4345680229    0.3800759429
     H    -0.0633280060   10.0978304734   -0.3157427959
     H    -0.1518570974   12.9810577828   -1.3405268369
     H    -0.7580416177   11.5421961506   -2.1644089728
     H     1.5131380409   12.3183358625   -3.0269692755
     H     1.5418024777   10.6641803820   -2.4245332270
     H     2.3724246367   13.1669460337   -0.8541789030
     H     3.4951753330   12.0275526435   -1.5973018209
     H     5.3824511940    3.6658483087   -1.6566189137
     H     5.8533104651    1.2551743407   -2.0099501865
     H     0.7275774109   -2.3825631605   -0.5863256985
     H     0.1866449726   -4.7633219291   -0.3246344314
     H     1.9734427768   -6.4055905324    0.2261506354
     H     4.3147098595   -5.6283066771    0.5237777105
     H     4.8602948634   -3.2240641993    0.3048742471
