67
-1.3476349487871580e+03 frame 149   xyz file generated by TeraChem
     C     2.5278341371   -5.3959852519    6.1542482276
     O     2.1234713124   -4.1072734239    6.5915725418
     C     2.7329540525   -3.0331921072    6.0516789774
     C     3.7799575246   -3.0960162014    5.1252550582
     C     4.3456575127   -1.9192207169    4.6483692618
     C     3.8862772373   -0.6677963567    5.0733623722
     C     2.8235412189   -0.6187939841    5.9924047416
     C     2.2574732876   -1.7837290301    6.4764929037
     C     4.4784499941    0.5419339163    4.5080467182
     C     4.8190366200    0.7778537428    3.2048743769
     N     5.3392021035    2.0527305736    3.1404902534
     C     5.3161594190    2.6074956395    4.3945375776
     N     4.7986039238    1.6803460153    5.2341934647
     C     4.7130427416    1.8612276612    6.6736835796
     C     5.7774249462    3.9006128910    4.6240126304
     C     6.2763987762    4.6294130281    3.5500819775
     C     6.2764051147    4.0195679269    2.2618236041
     C     5.8135425679    2.7533190148    2.0685023136
     C     6.7971975708    5.9865005018    3.6661508819
     C     6.9379073728    6.6789019115    4.8129878518
     C     7.4603253641    8.0361184932    4.9442500733
     C     7.5181380540    8.6116306209    6.2226507116
     C     8.0016441584    9.8961280773    6.4190647732
     C     8.4497067894   10.6428240675    5.3296273123
     C     8.4001928618   10.0954353300    4.0487653705
     C     7.9108767648    8.8080847622    3.8650229332
     N     8.9512922472   12.0298525108    5.5815899470
     C    10.0821150512   11.9962125639    6.6001276403
     C    11.3069861648   11.2458423779    6.1290116117
     C     9.4180898853   12.6939273416    4.2976714314
     C    10.0168388748   14.0755747071    4.4616583393
     C     7.8204066560   12.8374396106    6.1511598143
     I    -1.4520606928   -4.1841932708    4.1955167330
     I     6.3910013966    1.6430135440   -1.7724787822
     H     1.9017081395   -6.1041709186    6.6978660085
     H     3.5818575887   -5.5820639455    6.3897904327
     H     2.3639746339   -5.5143278420    5.0771924375
     H     4.1652555407   -4.0486915634    4.7796655951
     H     5.1708586459   -1.9764442415    3.9436568300
     H     2.4173131510    0.3372545647    6.3103184447
     H     1.4316753548   -1.7510313289    7.1807894334
     H     4.7077171975    0.1632023779    2.3248934024
     H     5.6023927199    2.3912473037    7.0203167205
     H     4.6807680017    0.8810341407    7.1480489296
     H     3.8171191986    2.4285376532    6.9387933594
     H     5.7254188080    4.3083748183    5.6266575827
     H     6.6539408668    4.5666307167    1.4043687796
     H     5.7992037834    2.2465840239    1.1069143135
     H     7.0936495994    6.4387800883    2.7220326570
     H     6.6479557623    6.2169849848    5.7553319702
     H     7.1754628803    8.0425447215    7.0825884544
     H     8.0173466752   10.2906914079    7.4293994450
     H     8.7308909783   10.6411169673    3.1751814721
     H     7.8891843808    8.4117487566    2.8547866649
     H     9.6659595265   11.5470629792    7.5020228557
     H    10.3091708332   13.0387176227    6.8296146496
     H    11.0696305804   10.2195972280    5.8337267526
     H    12.0087305378   11.2009528728    6.9672097070
     H    11.8117622503   11.7496602513    5.3007639423
     H     8.5388486319   12.7359999632    3.6509961037
     H    10.1497159528   12.0229301327    3.8459393272
     H     9.3243092701   14.8012235358    4.8947985754
     H    10.2616744897   14.4247430348    3.4535195021
     H    10.9457117205   14.0745499756    5.0377367546
     H     7.4798213736   12.3752940565    7.0763508851
     H     7.0132683522   12.8568128097    5.4182239930
     H     8.1762059805   13.8454371047    6.3600695655
