44
-1.1495579632569716e+03 frame 24   xyz file generated by TeraChem
     O    -0.1270758625   -2.5556784818    0.7261139970
     C    -0.1191548197   -1.4129617001    0.2927730707
     C    -1.3941267682   -0.6741859847    0.1288110263
     C    -2.6031024674   -1.3507305637    0.3026145326
     C    -3.8059182932   -0.6713688109    0.1540044333
     C    -3.8081216768    0.6889447161   -0.1658390553
     C    -2.6076609902    1.3665128751   -0.3394365595
     C    -1.3965448247    0.6880548626   -0.1897893953
     C    -0.1242028992    1.4246324307   -0.3802517092
     O    -0.1379976957    2.5634367761   -0.8235344938
     C     1.1594676729    0.7141133107   -0.0929728232
     C     1.1606313696   -0.7003082528   -0.0068484964
     C     2.3752761076   -1.4161176363   -0.0547256470
     C     3.5654367162   -0.6839832797   -0.0810605420
     C     3.5647885072    0.7013914645   -0.0416657303
     C     2.3733773765    1.4317987289   -0.0570812138
     C     2.4866632061    2.9101424351    0.0418463396
     C     3.2976896190    3.6115743309   -0.8561813792
     C     3.4851902332    4.9855192684   -0.7190112647
     C     2.8783900626    5.6726534726    0.3286739105
     C     2.0817628279    4.9776190534    1.2392167025
     C     1.8874098895    3.6087891598    1.0977999561
     C     2.4905976779   -2.8943324506   -0.1546265001
     C     1.8883565003   -3.5931898083   -1.2087167431
     C     2.0846636427   -4.9615344970   -1.3520648652
     C     2.8862706033   -5.6558243087   -0.4453183549
     C     3.4960326098   -4.9683704288    0.6004280301
     C     3.3066474886   -3.5948472610    0.7395081488
     H    -2.5797717132   -2.4073923723    0.5500805749
     H    -4.7461680540   -1.1994098693    0.2857089130
     H    -4.7500832913    1.2184394352   -0.2779648138
     H    -2.5876264848    2.4230479492   -0.5877542353
     H     4.5093885551   -1.2199969099   -0.1280623859
     H     4.5084547430    1.2385639557   -0.0029852968
     H     3.7712334255    3.0790522595   -1.6774139226
     H     4.1088234177    5.5170726304   -1.4330535980
     H     3.0278356989    6.7433175486    0.4398545021
     H     1.6135435846    5.5042758165    2.0667805847
     H     1.2735925274    3.0710921988    1.8160124531
     H     1.2702621462   -3.0560117849   -1.9236321393
     H     1.6139903464   -5.4884177083   -2.1780940707
     H     3.0372341564   -6.7261269556   -0.5579402954
     H     4.1235708825   -5.4993618111    1.3114614402
     H     3.7827329066   -3.0620244521    1.5590768003
