67
-1.7943983819706709e+03 frame 47   xyz file generated by TeraChem
     C     2.1466570031   -4.5618440781    7.0582501673
     C     1.3513797798   -3.8795452095    5.9546607636
     N     2.1735265913   -2.9624318251    5.1668137721
     C     2.8587563635   -3.2607865570    4.0590841479
     C     2.8679417378   -4.5611032592    3.5149135209
     C     3.5100418966   -4.9270558114    2.3562225814
     C     3.5119542514   -6.2194212324    1.7926504303
     C     4.1436595295   -6.5667674708    0.6000194686
     N     4.0284232930   -7.8350298883    0.1866044539
     C     3.3006787635   -8.5389187163    1.0466869600
     S     2.7119276863   -7.6316606838    2.4418354573
     N     3.0292497748   -9.8472103840    0.8508045582
     N     2.3262421039  -10.3482759517    1.8161653858
     C     1.9676954065  -11.6437147179    1.7077983038
     C     2.2722080212  -12.4939525734    0.6087390733
     C     1.8388018718  -13.7891065364    0.5677375107
     C     2.1143860004  -14.6792711764   -0.6109126736
     C     2.2736923123  -16.1191291178   -0.1441461731
     C     1.0276333604  -16.5424468015    0.6061619238
     N     0.6583482948  -15.5937149077    1.6552272383
     C     1.0844246392  -14.3206433486    1.6770835383
     C     0.7892528330  -13.4779193870    2.8018817957
     C     1.2147016161  -12.1773234675    2.7851547204
     C     0.0210666580  -14.0504863121    3.9593425713
     C    -0.9699010137  -15.0879932068    3.4526116603
     C    -0.2291137754  -16.1553311907    2.6729204502
     C     3.5752644564   -2.0116860070    3.5526083589
     C     3.1757244144   -1.0008043047    4.6000373736
     C     2.3517814966   -1.6140438114    5.5387623895
     C     1.8252835956   -0.9406910847    6.6336432268
     C     2.1554583779    0.4091539584    6.7589305832
     C     2.9755629587    1.0436363709    5.8235044240
     C     3.4940537531    0.3409345428    4.7324135435
     C     3.0501438186   -1.5772008799    2.1717830365
     C     5.1039155260   -2.1922829177    3.5475885303
     H     1.4800523881   -5.2148857544    7.6294237883
     H     2.5791668273   -3.8272853897    7.7443474430
     H     2.9552545881   -5.1717337476    6.6433569660
     H     0.5302321923   -3.2896098406    6.3686914937
     H     0.9029253276   -4.6059379276    5.2748912070
     H     2.3238244695   -5.3299694937    4.0554718308
     H     4.0695390668   -4.1932270671    1.7837193144
     H     4.7103903787   -5.8549640589    0.0057775823
     H     2.8455949334  -12.0899197004   -0.2202652615
     H     1.2738067939  -14.6233911587   -1.3178968527
     H     3.0033064140  -14.3279873958   -1.1442826361
     H     2.4219463144  -16.7950068656   -0.9917017873
     H     3.1499813033  -16.2089820806    0.5095309745
     H     1.1750080934  -17.5137070184    1.0914814175
     H     0.1755586958  -16.6465441600   -0.0804677923
     H     0.9871003031  -11.5201517737    3.6209973700
     H    -0.4839485196  -13.2461639364    4.5037500780
     H     0.7151918583  -14.5272866861    4.6667571300
     H    -1.5033397566  -15.5644074804    4.2807155391
     H    -1.7166838787  -14.6087073096    2.8079330950
     H    -0.9324703785  -16.8144559943    2.1517643736
     H     0.3710312830  -16.7853485085    3.3444678920
     H     1.1914671876   -1.4277109245    7.3676838448
     H     1.7655457487    0.9719809172    7.6020420670
     H     3.2145374894    2.0960207961    5.9463997824
     H     4.1324122680    0.8385242902    4.0069041991
     H     1.9592521617   -1.4924507108    2.1767226400
     H     3.3440079447   -2.2771870169    1.3855810702
     H     3.4720508001   -0.5975563173    1.9264622582
     H     5.4630325706   -2.5198783915    4.5278487252
     H     5.5716312866   -1.2314292678    3.3107959531
     H     5.4250424258   -2.9192126371    2.7971810324
