17
-9.4304101265690588e+02 frame 23   xyz file generated by TeraChem
    Cl     1.2996468631   -0.3452690820    2.8255935104
     C     3.1021280022   -0.3935104213    2.6574513868
     O     3.7723964225   -0.6239001590    3.6096992887
     C     3.5330579726   -0.1177034465    1.2428833774
     C     5.0242129383   -0.1078815720    1.0813648033
     C     5.7426273193    1.0702522264    0.8730833981
     C     7.1268529990    1.0468155394    0.7146864251
     C     7.8120360479   -0.1656605286    0.7640557535
     C     7.1181867828   -1.3563596343    0.9726213202
     C     5.7436491535   -1.2992539438    1.1280309401
     F     5.0589830704   -2.4423738727    1.3345315014
     H     3.0958088529    0.8426235090    0.9475139114
     H     3.0555971968   -0.8794706286    0.6131815149
     H     5.2037780739    2.0137640539    0.8323800909
     H     7.6681290577    1.9740521054    0.5515238486
     H     8.8910060153   -0.1905378526    0.6401382810
     H     7.6243735139   -2.3156764191    1.0162013323
