38
-9.8840347446386181e+02 frame 64   xyz file generated by TeraChem
     N     1.9500188690   -0.0436368430   -3.0240021369
     C     1.0691023256   -0.4814992751   -2.3976130584
     C    -0.0537491238   -0.9630149083   -1.6732094990
     C    -0.1468749793   -2.2650523707   -1.1588894774
     C    -1.4403980997   -2.8105272901   -0.7588585022
     C    -2.6327244535   -2.5035933182   -1.4444633375
     C    -3.8435683766   -3.0463053016   -1.0644100106
     C    -3.9254981603   -3.9209828484    0.0398125953
     C    -2.7355938790   -4.2391253785    0.7288913992
     C    -1.5278553212   -3.7062450289    0.3263452821
     N    -5.1129011161   -4.4899845541    0.3942001196
     C     0.9975891470   -3.1246497523   -1.0227301255
     C     2.2840093570   -2.7037153929   -0.8461152959
     C     3.4392470657   -3.5329264576   -0.7292207825
     C     3.5179380451   -4.9163627991   -0.8751817654
     N     4.7922950567   -5.3234669960   -0.6965804139
     C     5.6061566439   -4.2405682525   -0.4286663976
     C     4.7873142387   -3.0886170923   -0.4408630714
     C     5.3720791634   -1.8394999932   -0.1941374970
     C     6.7369004061   -1.7791458079    0.0517211411
     C     7.5310948006   -2.9406557352    0.0577326366
     C     6.9778353005   -4.1908387474   -0.1823462536
     C    -1.0787162846    0.0070619011   -1.5073890491
     N    -1.8734709564    0.8501241379   -1.3758136572
     H    -2.6007921845   -1.8601674444   -2.3186385651
     H    -4.7454438017   -2.8137511362   -1.6251797652
     H    -2.7798017490   -4.9091022193    1.5840016393
     H    -0.6293211218   -3.9564288838    0.8842159592
     H    -5.9631824152   -4.0570917397    0.0610606606
     H    -5.1864895170   -4.8963050749    1.3165427699
     H     0.7863660541   -4.1913976266   -1.0139348304
     H     2.4713310717   -1.6363416779   -0.7488230327
     H     2.7397945080   -5.6329348500   -1.1018902980
     H     5.1034147518   -6.2836011318   -0.7593978427
     H     4.7718290160   -0.9329989045   -0.1956341908
     H     7.2033438553   -0.8166290140    0.2437290866
     H     8.5965688609   -2.8582211758    0.2539424349
     H     7.5834529808   -5.0926564474   -0.1801632607
