33
-8.7298827482532010e+02 frame 33   xyz file generated by TeraChem
     N     2.2230186029    0.7901536894   -0.3670275681
     C     1.2607336370    0.1566331929   -0.1949069315
     C     0.0374186131   -0.5484874876   -0.0118594022
     C    -0.0457340115   -1.9399225454   -0.0002399872
     C    -1.3059351926   -2.6472014081   -0.1228366777
     C    -2.4027367742   -2.1384439251   -0.8527349855
     C    -3.5814585826   -2.8420756330   -0.9666431209
     C    -3.7340755676   -4.1005889697   -0.3400704118
     C    -2.6393657202   -4.6226040955    0.3865279403
     C    -1.4591921932   -3.9181620901    0.4752986043
     N    -4.8802283389   -4.8093738722   -0.4760734805
     C     1.1609079048   -2.7503124104    0.1167395470
     C     2.2232730899   -2.4339703514    0.8870377086
     C     3.4363250299   -3.2259094083    1.0368172536
     C     3.7367166862   -4.3640429456    0.2730314712
     C     4.9237101516   -5.0389786957    0.5081447717
     C     5.7826751976   -4.5597910293    1.4971978508
     N     5.5253794593   -3.4753583415    2.2349447932
     C     4.3809623969   -2.8358874328    1.9989835884
     C    -1.0850506747    0.3076063050    0.1689069170
     N    -1.9605605376    1.0558008676    0.3441192480
     H    -2.3109599429   -1.1950284615   -1.3815331966
     H    -4.4007862802   -2.4416653676   -1.5581380593
     H    -2.7383339131   -5.5882661627    0.8755532640
     H    -0.6398485117   -4.3385695287    1.0522801145
     H    -5.7071873563   -4.3530099035   -0.8330368313
     H    -5.0413588758   -5.6131198177    0.1137787362
     H     1.1411640617   -3.6960252986   -0.4199017614
     H     2.1856456389   -1.5308342089    1.4944156631
     H     3.0550109544   -4.7117793564   -0.4978126903
     H     5.1882700840   -5.9218794470   -0.0653319139
     H     6.7218377732   -5.0704959494    1.7019602875
     H     4.1856045179   -1.9530299768    2.6076787130
