55
-1.6236664066687508e+03 frame 125   xyz file generated by TeraChem
     C     2.2363001696    0.0912147282   -2.7710156308
     C    -0.2213060929    0.5978750153    0.4888530400
     C    -0.0821711458    1.9138388855   -0.1089694004
     C    -1.5779651733    2.2350679325    0.0136282204
     C    -2.4339208735    1.4266568607    0.6810411661
     C    -2.2069328655    0.0363899648    1.3654438117
     C    -0.6754453044   -0.4246627095    1.4012605696
     S    -4.1580196379    1.9787538788    0.6988517633
     O    -4.2567273530    3.0398370200   -0.3277937067
     O    -4.9246984292    0.7571225082    0.3589156813
     O    -4.4011082291    2.4755637629    2.0732927531
     C    -2.7576564997   -0.0353204697    2.7883741637
     N    -0.3392662232   -0.0823666959   -0.6141565337
     C     0.3921570370    0.9937551482   -1.3508659114
     C     1.8768349327    0.5729884024   -1.3561777927
     C     2.2371773071   -0.5342725202   -0.3405059267
     C     1.3823941467   -1.4356634739    0.2367478689
     C    -0.1065804478   -1.3315734723    0.1811923515
     C     3.6523711561   -0.7078884807   -0.0382978866
     C     4.6736961309    0.0885893519   -0.4304459846
     C     6.0786149574   -0.0658380206   -0.0940297275
     C     7.0050329184    0.8798282510   -0.5680237317
     C     8.3572546250    0.8006435504   -0.2843841634
     C     8.8696802587   -0.2535815173    0.5078990441
     C     7.9411427513   -1.2135129189    0.9848823633
     C     6.5948663187   -1.1150535255    0.6902404655
     N    10.2003729259   -0.3448703958    0.8023872847
     C    11.1242469898    0.6433611348    0.2893987739
     C    10.6907988240   -1.4283214749    1.6269286564
     H     2.1059119763    0.9059229371   -3.4907036878
     H     1.5893086934   -0.7418975551   -3.0673020906
     H     3.2732038131   -0.2496552855   -2.8167966932
     H     0.5883493974    2.6859700734    0.2680147263
     H    -1.9507697793    3.1513579616   -0.4373511630
     H    -2.7442506131   -0.6805159235    0.7307035416
     H    -0.2704374557   -0.5680981672    2.4003676262
     H    -3.8221757094    0.1992952974    2.8110033037
     H    -2.2369189603    0.6702155356    3.4439801487
     H    -2.6085740583   -1.0471147725    3.1788614376
     H    -0.0098815988    1.2230492463   -2.3388256425
     H     2.4818040815    1.4578294428   -1.1274059094
     H     1.8009527338   -2.2510320634    0.8227742847
     H    -0.6634933822   -2.2173898546   -0.1330133843
     H     3.8720136496   -1.5657630515    0.5957818767
     H     4.4637506003    0.9528710280   -1.0598453448
     H     6.6467111112    1.7059818775   -1.1795388865
     H     9.0216171174    1.5621391882   -0.6773702442
     H     8.2826607193   -2.0442673376    1.5922883593
     H     5.9285446435   -1.8797007694    1.0813601305
     H    10.8817485616    1.6524252000    0.6495910645
     H    11.1252967256    0.6664022529   -0.8087732162
     H    12.1324024989    0.3972422021    0.6241168498
     H    10.2190319295   -1.4285263681    2.6186185515
     H    11.7663706875   -1.3127324226    1.7643406457
     H    10.5088941752   -2.4079198362    1.1642443367
