61
-1.2691053381864526e+03 frame 160   xyz file generated by TeraChem
     C     0.5779906248    1.7763871866    0.8141165249
     O     1.5697513720    1.3279747553    1.7258539748
     C     2.2236693096    0.1847622403    1.4348149274
     C     1.9814200659   -0.5942566062    0.2979483189
     C     2.7111836698   -1.7596288605    0.0981876534
     C     3.6885347405   -2.1706878029    1.0115509590
     C     3.9288735370   -1.3733425011    2.1433815201
     C     3.2049347139   -0.2136757213    2.3542123951
     C     4.4613560536   -3.3781328643    0.7329800170
     C     4.9795556429   -3.7813657141   -0.4668759408
     N     5.6198830015   -4.9822575503   -0.2544170899
     C     5.5045086676   -5.3210211785    1.0678569192
     N     4.7913373263   -4.3442567208    1.6727733742
     C     4.3848768527   -4.3831945052    3.0686976503
     C     6.0621481741   -6.5017474146    1.5572757138
     C     6.7407589534   -7.3391160226    0.6814228166
     C     6.8478960781   -6.9462474726   -0.6867455151
     C     6.2938607984   -5.7870990003   -1.1322559668
     C     7.3022208715   -8.5783087217    1.1989730448
     C     8.0157612413   -9.4758204529    0.4915074609
     C     8.5643570176  -10.7290214818    1.0039301067
     C     8.3286876731  -11.2074877150    2.3001780370
     C     8.8709436949  -12.4092142144    2.7376348297
     C     9.6650586161  -13.1610670121    1.8756097546
     C     9.9160609979  -12.7097334574    0.5815554383
     C     9.3665584265  -11.5089455287    0.1569270970
     N    10.2734679495  -14.4543217168    2.3083263761
     C     9.8668917182  -14.8474140952    3.6934158005
     C    11.7716467289  -14.3348777300    2.2850527242
     C     9.8447973984  -15.5573898368    1.3819292465
     I    -0.6229887027   -0.3570517219   -3.1347443471
     I     0.0716445018   -3.8330548607    3.7107292511
     H     0.1883666251    2.7055820491    1.2315627590
     H    -0.2341039622    1.0462924462    0.7219350028
     H     1.0070517456    1.9693780367   -0.1757209099
     H     1.2274841327   -0.3124897911   -0.4305234328
     H     2.5034141426   -2.3681461895   -0.7778447837
     H     4.7038081769   -1.6488563859    2.8523782125
     H     3.3910228104    0.4082045892    3.2246985694
     H     4.9669614177   -3.3043283990   -1.4346391281
     H     4.2461670760   -5.4230361158    3.3679762304
     H     3.4327672728   -3.8608923507    3.1738487532
     H     5.1412877853   -3.9150549460    3.7038136715
     H     5.9625242605   -6.7507196692    2.6078735660
     H     7.3692328205   -7.5662017760   -1.4060712811
     H     6.3383231970   -5.4392128428   -2.1570890603
     H     7.1033512105   -8.7574224100    2.2536108182
     H     8.2297942890   -9.2861258209   -0.5586515594
     H     7.7067137237  -10.6470012216    2.9907916999
     H     8.6527534130  -12.7322014209    3.7476198222
     H    10.5316859373  -13.2728708205   -0.1118485968
     H     9.5664309687  -11.1682137243   -0.8553714819
     H     8.7834425786  -14.9633029820    3.7279149036
     H    10.2043979533  -14.0879025432    4.3977656271
     H    10.3510831666  -15.7978670576    3.9167393175
     H    12.0587619907  -13.5332525005    2.9665863036
     H    12.0972661871  -14.1090783517    1.2706310146
     H    12.1898069982  -15.2882574254    2.6122194911
     H     8.7561789213  -15.6164339132    1.4035479248
     H    10.2894284739  -16.4876640348    1.7388701492
     H    10.1958880452  -15.3424550584    0.3743927281
