21
-5.1589021313097305e+02 frame 9   xyz file generated by TeraChem
     C     0.9778278730    0.0448591877    0.0128627657
     C     2.4757003475   -0.0080242294   -0.0560071428
     C     3.1785017919   -1.2380113100   -0.0558544438
     C     4.5518893429   -1.3134731455   -0.1167175800
     C     5.3140942822   -0.1239768742   -0.1830577375
     C     4.6357461533    1.1240115194   -0.1854841968
     C     3.2145444589    1.1599694838   -0.1205050147
     O     2.6071096885    2.3649360473   -0.1242813171
     N     5.2666458807    2.3247820313   -0.2480876133
     C     6.5819082068    2.3237882357   -0.3091685518
     C     7.3605336510    1.1438486592   -0.3124530535
     C     6.7273556681   -0.0742923008   -0.2497764322
     H     0.5515026588   -0.9619919613    0.0353492710
     H     0.5574269443    0.5754300553   -0.8500015101
     H     0.6384797180    0.5796398869    0.9084278020
     H     2.5947462626   -2.1545703947   -0.0057429784
     H     5.0585483405   -2.2748198370   -0.1147112418
     H     3.3372523935    3.0178926588   -0.1761764338
     H     7.0702718652    3.2956930689   -0.3590186217
     H     8.4425015076    1.2152015178   -0.3645577512
     H     7.2949829518   -1.0019423039   -0.2503782068
