50
-1.3563746255164733e+03 frame 42   xyz file generated by TeraChem
     C     2.2821031405    0.4763494051   -1.1738292071
     C     1.4816377765    0.2211189657    0.0959000411
     N     2.2622576173   -0.4245142335    1.1354981482
     C     2.4627484614   -1.7908589490    1.2562351696
     C     1.9362001091   -2.8306100550    0.4878504133
     C     2.2892301253   -4.1299215142    0.8365266394
     C     3.1452913332   -4.3944061785    1.9172203919
     C     3.6697020397   -3.3550115909    2.6765578159
     C     3.3299313510   -2.0409379488    2.3469854680
     C     3.6742329085   -0.7497847743    2.8969651847
     C     2.9947898181    0.2167052152    2.1046167755
     C     3.1162943837    1.5844969493    2.3692206077
     C     3.9111406902    1.9631292095    3.4375614768
     C     4.5973018393    1.0251834314    4.2471762988
     C     4.4676656948   -0.3432239613    3.9611345776
     C     5.4048015698    1.5300386021    5.3419329779
     C     6.1855765786    0.8299322664    6.1940452310
     C     6.9018333313    1.5219952204    7.2721508164
     O     6.7739810711    2.7260042515    7.4849704561
     C     7.7757921860    0.6894747416    8.1582271864
     C     8.6376471568   -0.2941473069    7.5441179794
     O     8.7548506197   -0.5035725238    6.3526200076
     O     9.4241646366   -1.0671500701    8.3711090264
     C     9.4319758014   -0.9207172311    9.7178832235
     C     8.6357040956    0.0372892796   10.3607338731
     C     7.7884580588    0.8653175595    9.5254366398
     O     6.9890110372    1.7773006256   10.0647859974
     C     8.7108351325    0.1325513167   11.7619766078
     C     9.5466175199   -0.7026433129   12.4816104769
     C    10.3286532559   -1.6537789718   11.8151522794
     C    10.2753262412   -1.7665723193   10.4350624147
     H     1.6499547888    0.9662295848   -1.9216849928
     H     2.6520148274   -0.4624509937   -1.5987202114
     H     3.1398771234    1.1250783974   -0.9686089817
     H     0.6141705567   -0.4135441905   -0.1106842627
     H     1.0947172758    1.1585784133    0.5058080655
     H     1.2782779978   -2.6402247316   -0.3550532110
     H     1.8933196187   -4.9581545604    0.2546500278
     H     3.4003097452   -5.4223980605    2.1591837159
     H     4.3337364997   -3.5592887662    3.5129100590
     H     2.6099561583    2.3301462981    1.7638934616
     H     4.0200854450    3.0207110896    3.6659747357
     H     4.9791021292   -1.0850373763    4.5688458647
     H     5.3789119887    2.6104153296    5.4875087442
     H     6.3031499399   -0.2454190528    6.1171949915
     H     7.0295280627    1.7538140944   11.0337060811
     H     8.1208742647    0.8655697065   12.3070402655
     H     9.5949262172   -0.6165163846   13.5624448203
     H    10.9848715495   -2.3089691952   12.3805148638
     H    10.8734616901   -2.4938846043    9.8955036915
