61
-1.7773359750541154e+03 frame 91   xyz file generated by TeraChem
     C     1.2551234673   -2.8693279276   -0.4886145673
     N     0.7948173350   -1.5976314036   -1.0133393056
     C     1.6180752898   -0.8407888518   -1.7820060943
     C     2.9295425565   -1.2749274151   -2.1071074971
     C     3.7580276617   -0.4904731902   -2.8788019710
     C     3.3473091311    0.7594122906   -3.3908367617
     C     2.0394134986    1.1860532048   -3.0686268806
     C     1.2009966856    0.4219953847   -2.2893426542
     C     4.2760079292    1.5216149548   -4.1743362264
     C     4.0251341556    2.6900760024   -4.8361171756
     C     4.9199335011    3.4057579997   -5.7014068766
     C     4.3394186913    4.1260352214   -6.7809564543
     C     5.1108998173    4.7398776243   -7.7198550661
     C     6.5243763591    4.6520997924   -7.6423895599
     C     7.0986774705    3.9745695393   -6.5365723142
     N     6.2711859752    3.4328141750   -5.5579078458
     C     6.9042866308    2.9994891809   -4.3073466431
     C     8.4988953251    3.8589139230   -6.4528604710
     C     9.2929031032    4.4181003930   -7.4358944362
     C     8.7324190854    5.1088544932   -8.5235997480
     C     7.3634962270    5.2187114975   -8.6238329207
     C    -0.5340307514   -1.1260158377   -0.6738655953
     C     2.2739290590    1.4104030719    1.7547579651
     C     3.6395254226    1.3119489181    1.1350575526
     C     4.1340822159    2.3365568918    0.3225901230
     C     5.3819883719    2.2333019510   -0.2870137681
     C     6.1582412565    1.0943761237   -0.0895620438
     C     5.6892306653    0.0687072764    0.7322839101
     C     4.4425655293    0.1824266541    1.3380693991
     S     7.7219310373    0.9065915374   -0.9380025552
     O     8.6695454912    0.3932785001    0.0805049999
     O     7.4697322903   -0.0738512495   -2.0281093018
     O     8.0731042049    2.2582408955   -1.4397249948
     H     2.1485115801   -2.7452025425    0.1363841538
     H     1.4941276317   -3.5722378968   -1.2964591344
     H     0.4675471065   -3.3070735606    0.1246080409
     H     3.2963498266   -2.2260439620   -1.7396468807
     H     4.7667439769   -0.8383712803   -3.0893010375
     H     1.6772213374    2.1455222649   -3.4278510219
     H     0.2102506408    0.7975904239   -2.0611780948
     H     5.2608014362    1.0677604998   -4.2646452534
     H     3.0103480481    3.0788075640   -4.8529018687
     H     3.2571167507    4.1409902653   -6.8472034092
     H     4.6566698775    5.2776800320   -8.5476198464
     H     7.6802078130    3.7173768676   -4.0425571416
     H     7.3459853372    2.0054543862   -4.4040530928
     H     6.1579825722    2.9910881703   -3.5175832262
     H     8.9669547960    3.3132780498   -5.6430437781
     H    10.3712479954    4.3105828573   -7.3636524485
     H     9.3764187428    5.5431750939   -9.2820098248
     H     6.9018889259    5.7380862666   -9.4593547439
     H    -1.0410270143   -1.8893967007   -0.0839262170
     H    -1.1329885720   -0.9345279921   -1.5723875310
     H    -0.4948111004   -0.2024862431   -0.0813407422
     H     2.0002090236    2.4512745518    1.9542883610
     H     2.2180087851    0.8496676011    2.6931111112
     H     1.5120173896    0.9969091042    1.0805159052
     H     3.5339897437    3.2302239370    0.1648931699
     H     5.7620057530    3.0360442832   -0.9114497860
     H     6.3030445122   -0.8108066871    0.9068508407
     H     4.0834895847   -0.6180597005    1.9815310523
