47
-1.6637373918541007e+03 frame 163   xyz file generated by TeraChem
     C     2.7900533223   -0.7013708968    0.4373638161
     N     2.4089630542    0.3798535257   -0.5039892567
     C     3.6176569392    0.9510537745   -1.1662628483
     C     3.2812004354    1.7742720921   -2.4078366862
     C     4.4170767517    2.6766121469   -2.8362515999
     C     4.9019917359    2.4919987848   -4.1445745096
     C     5.9555828938    3.2686879242   -4.5721284823
     O     6.5681134790    3.2629971149   -5.7797902559
     C     7.5677653934    4.2865283024   -5.7287737867
     O     7.5912018319    4.8035051433   -4.3984981840
     C     6.5662312811    4.1971916703   -3.7371253743
     C     6.1404518650    4.3823492036   -2.4480063560
     C     5.0303450836    3.6290580605   -1.9949307428
     C     4.6587801189    3.9091258362   -0.5735816422
     O     5.5329109430    4.1889064126    0.2312546779
     C     3.1942251841    4.0045424773   -0.1388579445
     C     2.8957293710    3.3562407513    1.1923398778
     C     2.1507047484    2.1486867552    1.2960751542
     C     1.5251124990    1.4119735466    0.1462725902
     C     1.9285419731    1.6820312479    2.5821542517
     O     1.2459965290    0.5577329446    2.9435786630
     C     1.1143273093    0.6342083938    4.3646581500
     O     2.0552645171    1.5995453787    4.8263123461
     C     2.4097772451    2.3153227194    3.7202605812
     C     3.1429055017    3.4764489043    3.6358362129
     C     3.3668046981    3.9828088777    2.3479560901
    Cl     0.6337969902   -0.9972027148   -2.5653461960
     H     1.8075614990   -0.0779644266   -1.2538397063
     H     3.2792237731   -1.4915351207   -0.1338750019
     H     1.8883964006   -1.0861239875    0.9142227256
     H     3.4742381540   -0.3032055850    1.1887295503
     H     4.2531442878    0.1064316186   -1.4452896906
     H     4.1530951333    1.5161519133   -0.3990887553
     H     2.3675410365    2.3576947211   -2.2634377130
     H     3.0508132285    1.0847719610   -3.2250441619
     H     4.4589477455    1.7477934375   -4.7987907877
     H     7.3014772585    5.0844190611   -6.4297849375
     H     8.5413988807    3.8518041163   -5.9686842655
     H     6.6208996885    5.0928696821   -1.7846951632
     H     2.5153854694    3.6804722627   -0.9242564688
     H     3.0333320907    5.0881137357   -0.0471416884
     H     1.1904346920    2.0895366579   -0.6398437802
     H     0.6471501986    0.8589251313    0.4892050296
     H     1.3455138682   -0.3387002092    4.8004742777
     H     0.0976164635    0.9604044372    4.6172274047
     H     3.5184273463    3.9820045285    4.5193931177
     H     3.9271259753    4.9053040820    2.2408053431
