57
-1.6011942361882557e+03 frame 63   xyz file generated by TeraChem
     C     1.4497299511    2.7357848582   -0.6215659450
     O     2.8711532720    2.5607813157   -0.6573879054
     C     3.2854280024    1.2963446832   -0.6664079462
     O     2.5324000587    0.3369984918   -0.6516015668
     C     4.7375996065    1.1205063128   -0.6984177505
     N     5.7228986509    2.0943605469   -0.7057413948
     N     5.4985288398    3.4065856012   -0.6810670496
     C     6.5601001528    4.1925446654   -0.6942983663
     C     6.3376790549    5.6363036791   -0.6700438550
     C     5.1181246040    6.2079958071   -0.6385477683
     C     4.8166418195    7.6331737864   -0.6142146683
     C     5.7998979541    8.6381182389   -0.6214839937
     C     5.4480171490    9.9777585466   -0.5978857901
     C     4.1010990633   10.3782736775   -0.5655920104
     C     3.1200052315    9.3769985442   -0.5585656270
     C     3.4714504542    8.0345772570   -0.5821422390
     C     3.7325460784   11.8098890164   -0.5370712599
     C     4.5013166203   12.7649907424   -1.2189998205
     C     4.1539948386   14.1122323948   -1.1912326260
     C     3.0314228985   14.5337747978   -0.4803453915
     C     2.2586598482   13.5953741920    0.2020718878
     C     2.6052792827   12.2480143734    0.1739836254
     C     7.8928782728    3.6829510269   -0.7321810379
     C     8.0968003716    2.3335817577   -0.7554085813
     C     6.9690397965    1.4922682864   -0.7409775732
     C     6.7706791151    0.1001811173   -0.7556758847
     C     5.3815108025   -0.1127867478   -0.7283132394
     C     4.6859028012   -1.4342887760   -0.6767661826
     O     4.4703025138   -2.0402876029    0.3480771449
     O     4.3679208300   -1.8579749567   -1.8954382617
     C     3.7002926351   -3.1249387206   -1.9504855776
     C     7.8546476060   -0.8761392996   -0.8022164548
     O     9.0397749223   -0.5918283847   -0.8018799287
     O     7.3978410518   -2.1338519671   -0.8460048087
     C     8.3989990486   -3.1550209281   -0.8733689822
     H     1.2923283819    3.8137672166   -0.6221149394
     H     1.0336299231    2.2880097187    0.2840238337
     H     0.9875433477    2.2799547002   -1.5003151857
     H     7.2423328014    6.2393598390   -0.6804724233
     H     4.2513900584    5.5479380273   -0.6302505768
     H     6.8530676311    8.3716046587   -0.6368554893
     H     6.2315213633   10.7305380344   -0.5801926017
     H     2.0688129072    9.6520122370   -0.5573952789
     H     2.6924783709    7.2753944152   -0.5845743074
     H     5.3650431476   12.4468618601   -1.7970455205
     H     4.7591599320   14.8342960578   -1.7333157182
     H     2.7607851108   15.5860716156   -0.4582110550
     H     1.3860606261   13.9140072564    0.7664019172
     H     2.0080701044   11.5296708300    0.7296944694
     H     8.7260667894    4.3779922416   -0.7416091779
     H     9.0825642881    1.8855354361   -0.7834151149
     H     3.5134048762   -3.3105379190   -3.0074105929
     H     2.7596925458   -3.0795069738   -1.3964832988
     H     4.3371807133   -3.9071228053   -1.5304471311
     H     7.8532768782   -4.0977752592   -0.8923700224
     H     9.0280925727   -3.0951315039    0.0179502311
     H     9.0204564824   -3.0550599071   -1.7665818374
