44
-8.9467206962946943e+02 frame 63   xyz file generated by TeraChem
     C     0.6927479750    1.0524022846   -0.1142035251
     N     2.0319086215    0.8497211645   -0.6332800420
     C     2.7816565349    1.9083626797   -1.0306526276
     C     2.2859874903    3.2389946221   -0.9378788870
     C     3.0543321262    4.3127281779   -1.3262875150
     C     4.3619475503    4.1462497121   -1.8349017639
     C     4.8419282744    2.8232185462   -1.9396673227
     C     4.0886484949    1.7345602998   -1.5562497478
     C     5.2121686235    5.2293166255   -2.2421424926
     C     4.9638097218    6.5648685330   -2.1028667104
     C     5.8599263177    7.6371378600   -2.4296779394
     C     5.7618688991    8.8186622942   -1.6815327860
     C     6.7030447908    9.8157884643   -1.8005732718
     N     7.7333060871    9.7328611431   -2.6550064818
     C     7.8302491695    8.6637399157   -3.5264537638
     C     6.8694588690    7.6128558995   -3.4594013972
     C     6.9198711811    6.6143701409   -4.4592727494
     C     7.9136276848    6.6002104775   -5.4118750890
     C     8.9027368625    7.5967644956   -5.4058429617
     C     8.8578785826    8.6245281814   -4.4880624545
     C     8.7336155857   10.7997916954   -2.6783593915
     C     2.5545164548   -0.4981844424   -0.7468673023
     I    -0.2366548611   -3.1859943243    1.7091555440
     H     0.0333807113    1.5075887442   -0.8644543489
     H     0.7024896359    1.6974226606    0.7730342710
     H     0.2725406659    0.0878046643    0.1718083977
     H     1.2876636940    3.4199874888   -0.5565817308
     H     2.6288614499    5.3088389993   -1.2390538361
     H     5.8413409954    2.6575617797   -2.3366326273
     H     4.5074237949    0.7405290715   -1.6614346866
     H     6.1751160048    4.9199355773   -2.6449016121
     H     4.0673072028    6.8767946740   -1.5702564699
     H     4.9820349541    8.9324757890   -0.9363900024
     H     6.6697085162   10.7029511642   -1.1788931612
     H     6.1326249231    5.8715960641   -4.4952647054
     H     7.9223281798    5.8287904868   -6.1756290100
     H     9.6945518812    7.5816698676   -6.1488819875
     H     9.6049718473    9.4077538236   -4.5240418907
     H     8.4798377651   11.5278005821   -1.9094840882
     H     8.7346794402   11.2896537081   -3.6548961095
     H     9.7224523731   10.3844419568   -2.4709676304
     H     1.8246525116   -1.1994827919   -0.3409547361
     H     3.4880734745   -0.6127480525   -0.1820371574
     H     2.7502816286   -0.7676391181   -1.7929347036
