49
-1.4536614462107596e+03 frame 168   xyz file generated by TeraChem
     C     1.2017719937    1.2388524303   -0.7213531415
     C     1.3706436425    0.0210225818   -1.4435759741
     C     1.0337442988   -1.0581003349   -0.5784748674
     C     0.6599862635   -0.5092332328    0.6853205148
     C     0.7589905948    0.9078894833    0.5877073604
     C     4.0203730358   -2.5551478298    1.0808295004
     O     3.9915508952   -1.1222394335    0.9102682057
     C     4.6264051548   -0.5399973966   -0.1731564688
     C     4.5288711932    0.8671923211   -0.1535246082
     C     5.0013418754    1.5960758239   -1.2520266832
     C     5.5616577548    0.9267578212   -2.3322119449
     C     5.6686154310   -0.4777990892   -2.3108773616
     C     5.1952806453   -1.2264256830   -1.2491799176
     C     6.0589292355    1.6601342188   -3.5003598954
     N     5.9126952920    2.9568737042   -3.6311775090
     O     6.5112494068    3.2289912952   -4.8487350125
     C     6.9565969259    2.0544424996   -5.3292448521
     N     6.7024509719    1.0454214624   -4.5336889460
     C     7.6212137787    2.0322532716   -6.5876920674
     N     7.8690914061    3.0336202362   -7.3880995194
     N     8.5148651935    2.5407035315   -8.4593085261
     C     8.6442970640    1.2169212309   -8.2728707687
     O     8.0817438268    0.8522062063   -7.0798276768
     C     9.2487072987    0.2837290807   -9.1155497918
     C     9.3289609322   -1.0748252211   -8.8268643912
     C     9.9129940478   -2.0774280108   -9.5989043059
     C    10.5774082891   -1.9648150246  -10.8748065503
     C    10.9925406690   -3.2221031867  -11.2489341178
     C    10.6052992041   -4.1626719660  -10.2263214313
     C     9.9543127513   -3.4724918892   -9.2307756288
    Fe     2.5568901474    0.0138377333    0.1924073572
     H     1.4343387392    2.2316943914   -1.0842895685
     H     1.7720047041   -0.0716837609   -2.4454958025
     H     1.1152384767   -2.1115228113   -0.8177803217
     H     0.3922407237   -1.0683559940    1.5730778409
     H     0.6370250162    1.6059495116    1.4080278671
     H     3.4254664077   -2.7428992539    1.9725154270
     H     5.0561204719   -2.8651525586    1.2312981319
     H     3.5796221855   -3.0489847687    0.2121651175
     H     4.2652005937    1.3785770828    0.7830394641
     H     4.9524301660    2.6800741618   -1.2395729875
     H     6.1243623573   -0.9784845491   -3.1591849976
     H     5.2730033491   -2.3078852398   -1.2551499700
     H     9.6637379378    0.6899332039  -10.0325804302
     H     8.8834943285   -1.3985884843   -7.8843409953
     H    10.7202310921   -1.0443118900  -11.4315525004
     H    11.5249881329   -3.4746552425  -12.1615571564
     H    10.8006457198   -5.2306549883  -10.2499257913
     H     9.5343232713   -3.8801346442   -8.3158341697
