49
-1.4465619876296901e+03 frame 72   xyz file generated by TeraChem
     C     1.5104198010   -2.0297874285   -1.7926841796
     O     2.9195161066   -2.0361606581   -1.5333575068
     C     3.2792631830   -1.5255385497   -0.3591297234
     O     2.4919130730   -1.0731236082    0.4551052047
     C     4.7186157561   -1.5286485758   -0.0954918003
     N     5.7362503860   -2.0762537495   -0.8585185206
     N     5.5617312821   -2.7521435156   -1.9943404697
     C     6.6458712376   -3.2147624404   -2.5839954105
     C     7.9541881209   -3.0222926718   -2.0498001806
     C     8.1055127305   -2.3412813346   -0.8757440453
     C     6.9532106588   -1.8481641250   -0.2390763922
     C     6.7026836556   -1.1362967634    0.9462514797
     C     5.3113892667   -0.9489851371    1.0211773282
     C     4.5743299539   -0.1899415942    2.0767785009
     O     4.3701452139    1.0013384786    2.0263362199
     O     4.2066801195   -0.9866169237    3.0741980321
     C     3.5201062553   -0.3420648843    4.1544632214
     C     7.7400710236   -0.7114569157    1.8818325606
     O     8.9347311510   -0.8881527059    1.7184103600
     O     7.2226014045   -0.1015765058    2.9552986415
     C     8.1671573912    0.3591026925    3.9257276672
     C     6.4254608940   -3.9438745212   -3.8511588921
     C     7.3434295604   -4.9413739732   -4.2782488798
     C     7.1345566056   -5.6290238661   -5.4466962450
     C     6.0065347117   -5.3586185540   -6.2618627147
     C     5.0812873801   -4.3554330766   -5.8402896178
     C     5.3164142060   -3.6673169568   -4.6281223602
     C     3.9512193068   -4.0755103739   -6.6525344606
     C     3.7464254065   -4.7621851722   -7.8248098285
     C     4.6618858755   -5.7587259538   -8.2395622552
     C     5.7671993860   -6.0500809907   -7.4756022407
     H     1.3963066297   -2.4828158946   -2.7767873744
     H     1.1289599194   -1.0060421092   -1.7954719708
     H     0.9816033969   -2.6151029364   -1.0368856859
     H     8.8197950063   -3.3963033743   -2.5836774709
     H     9.0727598595   -2.1605567944   -0.4226899895
     H     3.2973204228   -1.1318973515    4.8706814727
     H     2.5983777653    0.1204821805    3.7936703607
     H     4.1604514999    0.4180616971    4.6083989889
     H     7.5711389372    0.7802969745    4.7345959616
     H     8.8155594160    1.1243578388    3.4917089839
     H     8.7750930425   -0.4720011431    4.2905943534
     H     8.2042283745   -5.1850901540   -3.6628724927
     H     7.8347021825   -6.3999406167   -5.7591348476
     H     4.6128211656   -2.9032915418   -4.3083510877
     H     3.2511935012   -3.3091310344   -6.3281041610
     H     2.8780709230   -4.5426773835   -8.4401005978
     H     4.4866512985   -6.2940991243   -9.1688777159
     H     6.4737798192   -6.8144536174   -7.7906678793
