53
-1.5238741010899753e+03 frame 62   xyz file generated by TeraChem
     C     1.5111367809    1.3195646636   -1.1456825298
     O     2.9343863812    1.3861242747   -1.2936509109
     C     3.6075609531    0.3796897948   -0.7433119446
     O     3.0812793596   -0.5419442625   -0.1419044004
     C     5.0599964953    0.4384319445   -0.9126782745
     N     5.8177437966    1.3906950760   -1.5765191899
     N     5.3276108648    2.4720641076   -2.1854254111
     C     6.2017949092    3.2739962071   -2.7722388686
     C     5.5991596077    4.4317491901   -3.4210926113
     C     6.2765122770    5.4099635140   -4.0530436834
     C     5.6998845422    6.5737297727   -4.7159740220
     C     4.2938310852    6.7946853905   -4.8109839478
     C     3.7980369867    7.8999358340   -5.4488040526
     C     4.6641042676    8.8623401714   -6.0348601377
     C     6.0739986236    8.6555673720   -5.9462093021
     C     6.5565022504    7.5033243697   -5.2828794567
     C     6.9480829137    9.6099747732   -6.5270669076
     C     6.4466340119   10.7181545038   -7.1682549638
     C     5.0500911458   10.9209608263   -7.2567739675
     C     4.1779870699   10.0123371159   -6.7016813916
     C     7.6071110667    3.0137777789   -2.7669006538
     C     8.0798060291    1.9008207528   -2.1379825325
     C     7.1549113231    1.0434053211   -1.5117367976
     C     7.2515215841   -0.1582176578   -0.7913151328
     C     5.9423603181   -0.5194048154   -0.4252615730
     C     5.5533406189   -1.6947074660    0.4113557610
     O     5.5184206663   -1.6716295850    1.6204462281
     O     5.2913885288   -2.7593939786   -0.3393203532
     C     4.9585210425   -3.9513859125    0.3831817397
     C     8.5059528373   -0.8616432298   -0.5405388254
     O     9.6030275976   -0.4692415961   -0.8979821900
     O     8.3139092140   -2.0067906751    0.1263306046
     C     9.4923635487   -2.7694829119    0.4014937868
     H     1.1267804533    2.2004081110   -1.6585578879
     H     1.2359762044    1.3415971738   -0.0885292297
     H     1.1224548771    0.4079490853   -1.6056237684
     H     4.5142885270    4.4553055820   -3.3542907857
     H     7.3636706787    5.3652709558   -4.0940082312
     H     3.6043794216    6.0769461619   -4.3764439056
     H     2.7237263871    8.0555072437   -5.5166273962
     H     7.6324308982    7.3504229237   -5.2206597295
     H     8.0213221532    9.4484242467   -6.4562807704
     H     7.1235809916   11.4441804233   -7.6104638062
     H     4.6670285925   11.8007508083   -7.7668760737
     H     3.1032065901   10.1654116554   -6.7677800262
     H     8.2900124232    3.6940190357   -3.2617311640
     H     9.1329862145    1.6497234434   -2.1018545642
     H     4.7925516867   -4.7151612513   -0.3755628360
     H     4.0528669950   -3.7956772034    0.9743550248
     H     5.7829678026   -4.2363076068    1.0411627317
     H     9.1477119986   -3.6547335112    0.9348415878
     H    10.1826033538   -2.1937265770    1.0228497397
     H     9.9887295529   -3.0527846718   -0.5297810719
