24
-5.5512958247095025e+02 frame 55   xyz file generated by TeraChem
     C     3.1007496573    0.9379070074    0.7576606642
     O     2.4816111152   -0.2009318653    0.1636517812
     C     3.1103574540   -0.6882808233   -0.9487272486
     C     2.4814599351   -0.5538862130   -2.1744431004
     C     1.1619734789    0.1561895821   -2.2744944947
     C     3.1010536022   -1.1025045916   -3.3246906019
     C     4.3090216661   -1.7519286170   -3.2557553045
     C     4.9605303565   -1.9028919215   -2.0095741657
     C     4.3551190740   -1.3747922162   -0.8302061603
     N     4.9143408818   -1.5143832140    0.4032301311
     C     6.0648262126   -2.1479941064    0.4880090000
     C     6.7568504579   -2.6954777524   -0.6158224227
     C     6.1987057296   -2.5731785190   -1.8630684720
     H     2.4694672107    1.2235895420    1.6019145122
     H     3.1494383601    1.7688239061    0.0433336726
     H     4.1053641414    0.6936012106    1.1139580145
     H     1.2213551549    1.1682095915   -1.8589163276
     H     0.3841208126   -0.3718336054   -1.7107485710
     H     0.8385250505    0.2293460830   -3.3164876682
     H     2.6000339019   -0.9907833404   -4.2834499703
     H     4.7745759214   -2.1594770550   -4.1497231757
     H     6.4890780428   -2.2462661382    1.4870138470
     H     7.7045820239   -3.2026864116   -0.4636878294
     H     6.6876472493   -2.9840633746   -2.7435102599
