51
-1.5358209048197150e+03 frame 41   xyz file generated by TeraChem
     C     1.3176974189   -0.3199613042    0.0281726029
     O     2.7302017682   -0.0874158901    0.0794453651
     C     3.1267579304    1.0976659607   -0.3904870023
     O     2.3795792623    1.9638136256   -0.7825909946
     C     4.6113658714    1.2038310360   -0.3925762839
     C     5.4412581297    0.3497008713   -1.1114248885
     C     5.0349572372   -0.7794658967   -1.9321260336
     N     3.9478443040   -0.5637645208   -2.6785376155
     C     3.5582731629   -1.5094036775   -3.5248903755
     C     2.3552591505   -1.2777100572   -4.2734568612
     N     1.3828691917   -1.1048104136   -4.8821423428
     C     4.3162966379   -2.6793349798   -3.6943354207
     N     5.3354744801   -2.9510483019   -2.8831670527
     C     5.6709230515   -2.0630946086   -1.9493518197
     C     6.6637152143   -2.5117639607   -0.9553489358
     C     7.6753092203   -3.4002683390   -1.3471698754
     C     8.5951571580   -3.8668363304   -0.4165219570
     C     8.5038179040   -3.4691528672    0.9171957152
     C     7.4881470959   -2.6024202794    1.3172266669
     C     6.5734936164   -2.1196667556    0.3876825204
     C     4.0030858021   -3.6377992885   -4.7141903681
     N     3.7421564446   -4.4051019511   -5.5447804448
     N     6.7462273151    0.7901804097   -0.9305724971
     C     6.7495303073    1.8863854408   -0.0797277078
     C     5.4103530550    2.1546335947    0.2743345787
     C     5.0254176582    3.1817928268    1.2365130364
     O     5.7826232401    4.0265614125    1.6850096866
     O     3.7383731284    3.0894859179    1.5956220974
     C     3.2863098133    4.0713709747    2.5291248929
     C     7.9749455585    2.4966733459    0.2446092415
     C     9.1514230948    2.0345828352   -0.2993591432
     C     9.0876756262    0.9416099716   -1.2087636819
     C     7.9026378978    0.3461026870   -1.5144483793
     C    10.4728435323    2.6620696874    0.0231338234
     H     1.1679586854   -1.3073578239    0.4634190601
     H     0.9720998116   -0.3011456194   -1.0086359105
     H     0.7855954296    0.4395543289    0.6053755925
     H     7.7352811163   -3.7120857777   -2.3855103255
     H     9.3837964330   -4.5443204287   -0.7315373702
     H     9.2215875523   -3.8375749012    1.6450232321
     H     7.4028807389   -2.3042991529    2.3582856341
     H     5.7723858047   -1.4606548082    0.7102413202
     H     2.2280359218    3.8620788013    2.6829570367
     H     3.4211002196    5.0772526661    2.1236140519
     H     3.8333482353    3.9847997184    3.4714176760
     H     7.9511607108    3.3441853022    0.9193858109
     H     9.9902843992    0.5703191732   -1.6833641628
     H     7.8132066923   -0.4666960673   -2.2219518000
     H    10.3561088633    3.5037154598    0.7105526032
     H    10.9650355650    3.0232005181   -0.8876346050
     H    11.1474991179    1.9298676075    0.4826760158
