91
-3.5256595180119275e+03 frame 65   xyz file generated by TeraChem
     C     6.7227559093    0.4759476600    2.0402791378
     O     5.9179182363    0.7284781463    0.9040058275
     C     4.7526997397    1.4027260608    1.0710946880
     C     4.3268791883    1.8592657981    2.3224422801
     C     3.1305221285    2.5724030785    2.4345451232
     O     2.6430703377    3.0487668617    3.6055016430
     C     3.3912664374    2.8208259281    4.7853137389
     C     2.3608104600    2.8292900512    1.2977320770
     C     2.8008537497    2.3681734420    0.0670575725
     C     3.9917649758    1.6474395772   -0.0921493901
     C     4.4112353186    1.2057273442   -1.4403765432
     C     4.2515361185    2.0643382187   -2.5389983114
     C     4.5985915175    1.6746470216   -3.8255722967
     C     5.1114235665    0.3945546478   -4.0600837278
     C     5.2671116326   -0.4774347069   -2.9760193620
     C     4.9311438866   -0.0733567111   -1.6911546495
     N     5.4592218277   -0.0097257774   -5.3714322996
     C     6.6354537662   -0.7399700776   -5.5961321714
     C     7.7954396308   -0.4621597224   -4.8370397934
     C     8.9639200122   -1.1696043000   -5.0317917381
     C     9.0191381698   -2.1770975905   -6.0075121415
     C     7.8554547636   -2.4412104897   -6.7720814758
     C     6.6716666457   -1.7430296588   -6.5717506087
     S     8.0890363897   -3.7383798962   -7.9393598610
     C     9.7414301158   -3.9395329070   -7.4110403665
     C    10.0776791157   -3.0477110505   -6.4021825306
     S    11.7110896373   -3.2665708331   -5.8958605663
     C    11.9315172778   -4.5743681293   -7.0477274874
     C    10.7843749836   -4.8096046760   -7.7815071469
     C    13.1948499956   -5.2539196715   -7.1279313282
     C    14.3280117914   -5.0466344028   -6.3502072071
     C    15.4026541890   -5.8726503717   -6.6962263807
     C    15.1230932660   -6.7356029056   -7.7505746857
     S    13.4771999311   -6.5022349760   -8.2909628432
     C    15.8777039614   -7.7876947833   -8.3562119210
     C    17.2230333517   -8.0461302104   -8.3425248983
     C    18.3377735102   -7.2179603859   -7.7996371604
     O    19.3675156791   -7.7074744821   -7.3964516222
     O    18.1879715763   -5.8868009988   -7.8076623039
     C    17.6573154693   -9.2836691730   -8.9021277825
     N    18.0020227584  -10.2916865278   -9.3693747185
     C     4.5862430681    0.2957450329   -6.4431305968
     C     5.0860535148    0.7695412521   -7.6611120576
     C     4.2184750751    1.0842835975   -8.6986359332
     C     2.8280521603    0.9520585809   -8.5624624121
     C     2.3421903329    0.4772645015   -7.3344414075
     C     3.2024785902    0.1474874206   -6.2960380636
     C     1.9396172070    1.2699426413   -9.7019215279
     C     2.2971328531    0.8891809083  -10.9955058074
     C     1.5202280721    1.1722856127  -12.1179136247
     C     0.3278825173    1.8719844506  -11.9421770974
     C    -0.0661466150    2.2758918266  -10.6603250338
     C     0.7236392584    1.9834266683   -9.5539767417
     O     0.3984342925    2.3737389487   -8.2976839873
     C    -0.7881703259    3.1220877160   -8.1102083643
     O    -0.5226766787    2.2130920610  -12.9408834670
     C    -0.1691170229    1.8363190672  -14.2593798597
     H     7.5919833245   -0.0709625070    1.6719562630
     H     6.1928885676   -0.1381651287    2.7781615826
     H     7.0533537609    1.4090556572    2.5122330158
     H     4.9297827176    1.6677783058    3.2002543219
     H     2.8253470727    3.2861774232    5.5936531208
     H     4.3842577161    3.2822577361    4.7237285185
     H     3.5008743152    1.7485794606    4.9888027432
     H     1.4289883889    3.3768246787    1.3979103007
     H     2.1894465085    2.5532965193   -0.8123941087
     H     3.8745534823    3.0709805451   -2.3774526740
     H     4.4831688177    2.3667096110   -4.6547369753
     H     5.6457074318   -1.4812917204   -3.1466817794
     H     5.0521738240   -0.7721626737   -0.8704554557
     H     7.7625407401    0.3274036800   -4.0934032522
     H     9.8452383784   -0.9350672631   -4.4408818634
     H     5.7838856480   -1.9722632739   -7.1525868205
     H    10.7078385841   -5.5777952441   -8.5438867654
     H    14.3673194913   -4.3241298440   -5.5416420567
     H    16.3447805907   -5.8683022217   -6.1605423015
     H    15.2798354624   -8.5189060056   -8.8985352243
     H    17.3717414230   -5.6215725029   -8.2660845630
     H     6.1563108592    0.9062827700   -7.7872714599
     H     4.6281491086    1.4745402271   -9.6268664299
     H     1.2746764689    0.3445362417   -7.1958510076
     H     2.8018991400   -0.2326788776   -5.3605921571
     H     3.2177124885    0.3271308867  -11.1314214502
     H     1.8472449370    0.8403308329  -13.0964026193
     H    -0.9945082018    2.8270760825  -10.5645971300
     H    -0.8401695618    3.3342280151   -7.0413413083
     H    -1.6740429073    2.5503564275   -8.4119012276
     H    -0.7568658931    4.0651917786   -8.6687935256
     H    -0.9710646098    2.2032702178  -14.9016107459
     H    -0.0940602301    0.7465691258  -14.3560322122
     H     0.7801351285    2.2934414901  -14.5634748152
