58
-2.3412449675733292e+03 frame 194   xyz file generated by TeraChem
     C     1.0174521297    0.0833522157   -1.0673323952
     C     1.2008679937    0.2094765123   -2.4666366193
     C     1.2242914574   -1.1093092603   -3.0198051907
     C     1.0260249055   -2.0373245778   -1.9571290616
     C     0.9120396440   -1.3042596178   -0.7412280193
     C     3.8822567042   -5.6985844915   -0.3872791336
     C     3.8716092656   -4.1748659632   -0.3236441007
     C     4.2764385951   -3.5783115160   -1.6504184951
     O     4.2496538576   -2.1309979871   -1.5012415504
     C     4.5107630174   -1.3309617884   -2.6073368311
     C     4.6769074759    0.0498734550   -2.3272759432
     C     4.8203878774    0.8774182318   -3.4159492110
     C     4.7801821712    0.2652843229   -4.7002935087
     N     4.7633493964   -1.0943656957   -4.8553483377
     N     4.6085242916   -1.8660219278   -3.8195491167
     N     4.8043790215    0.9881456271   -5.8232744259
     N     4.9699792892    2.3516067217   -5.7694607581
     C     4.9873741256    2.8132685120   -7.0024320553
     C     4.8161888798    1.7160825957   -8.0332976335
     C     4.7385619323    0.4336587432   -7.1867049666
     C     3.5350659767   -0.4437570300   -7.4580199479
     C     3.7499443983   -1.7003514640   -8.0328032725
     C     2.7112225522   -2.5626924856   -8.3563094732
     C     1.4074354111   -2.1623087725   -8.0876828562
     C     1.1402832101   -0.9238504892   -7.5188272378
     C     2.2055419806   -0.0779689663   -7.2185885793
    Cl     1.8052416781    1.4706356602   -6.5291505233
    Cl     0.0806526523   -3.2232365579   -8.4672683161
     C     5.1398923912    4.1703368863   -7.3461721290
     C     5.1807581505    4.6891975848   -8.6826985204
     C     5.3423135331    6.0616400495   -8.6045249948
     C     5.4041822969    6.4299881704   -7.2211100138
     C     5.2832324427    5.2847699082   -6.4546572798
    Fe     2.6906489016   -0.9336290782   -1.6519938909
     H     1.0536058295    0.8968030597   -0.3518354455
     H     1.3834338614    1.1291583204   -3.0077390198
     H     1.4099949136   -1.3606422675   -4.0574168136
     H     1.0575186420   -3.1164023517   -2.0482537460
     H     0.8033350030   -1.7207424636    0.2522552751
     H     3.5867154062   -6.1236857861    0.5763815369
     H     4.8804516029   -6.0793458203   -0.6304068986
     H     3.1849955000   -6.0702963617   -1.1466282958
     H     4.5585594247   -3.8210490014    0.4540971182
     H     2.8692307335   -3.8136917922   -0.0624161702
     H     3.5938556291   -3.8584429649   -2.4566635809
     H     5.2980722169   -3.8470411180   -1.9334916052
     H     4.8006158932    0.4082584482   -1.3026824576
     H     4.9802298107    1.9441747734   -3.3265116524
     H     5.6574575456    1.6866302771   -8.7310810649
     H     3.9081472855    1.8783042789   -8.6224014577
     H     5.6280583630   -0.1860137240   -7.3413351196
     H     4.7730929898   -2.0136800275   -8.2231235432
     H     2.9111570569   -3.5314516937   -8.8017147624
     H     0.1216078056   -0.6108834278   -7.3180882412
     H     5.1004451505    4.0987576420   -9.5906089148
     H     5.4099483688    6.7471391025   -9.4444788469
     H     5.5269068524    7.4413416122   -6.8433487600
     H     5.2901142981    5.2214053475   -5.3713701043
