88
-2.3439734798202599e+03 frame 124   xyz file generated by TeraChem
     C     0.8619735406   -0.2800931610   -0.9507052558
     O     1.9778839564    0.3308424213   -0.3270594045
     C     2.5419471304   -0.2884157069    0.7355195736
     C     2.0612243433   -1.4785382864    1.2645106649
     C     2.6606691261   -2.1018610280    2.3706204420
     C     2.1648021900   -3.3449043701    2.9317533276
     C     1.1228699161   -4.0741042230    2.4785659380
     C     0.7150613415   -5.3003795178    3.1128833093
     N     1.2153204975   -5.8960818264    4.1574074534
     C     0.4380556267   -7.0302839258    4.3133283955
     C    -0.5338083763   -7.0547171883    3.3051703753
     O    -0.3521219448   -5.9425589064    2.5379024068
     C    -1.4789546731   -8.0562842212    3.1664628228
     C    -1.4153460361   -9.0784849705    4.1126821261
     C    -0.4511494315   -9.0793192806    5.1347250906
     C     0.4886875750   -8.0608851099    5.2541555598
     C     3.7916200098   -1.4851812864    2.9543087682
     C     4.2733593544   -0.2949619565    2.4237512943
     C     3.6761638698    0.3328494953    1.3177621992
     C     4.2828680179    1.5725591333    0.8690878087
     C     3.9289963430    2.4014239685   -0.1374407167
     C     4.6763258759    3.6200641374   -0.4329041786
     N     5.7495542896    3.9295229813    0.3050549994
     C     6.3772526150    5.0592032803   -0.0315478768
     C     7.5598027935    5.4712836918    0.7150464978
     C     8.0603909131    4.7571649175    1.7439728103
     C     9.2304737988    5.0777095582    2.5419632962
     C     9.9871068085    6.2416153019    2.3388577972
     C    11.1059324937    6.5295785513    3.1091674321
     O    11.8709729219    7.6355814713    2.9412785921
     C    11.4632145172    8.5892552595    1.9769881405
     C    11.5079037842    5.6362958274    4.1320162779
     C    10.7487942950    4.4756752735    4.3395948383
     C     9.6307271660    4.1865208025    3.5676102018
     O     8.8677209788    3.0801680875    3.7395201040
     C     9.2665173461    2.1365799394    4.7168776143
     C    12.6717181993    5.9588147697    4.9393833378
     C    13.2814488792    5.1331233858    5.8168286108
     C    14.4124718899    5.5133980441    6.6168211343
     N    15.0422357644    4.7559885045    7.4709730237
     C    16.0358680845    5.5707092604    7.9878235388
     C    15.9422966532    6.8310229851    7.3858776049
     O    14.9000990067    6.7884896294    6.5070127763
     C    16.7845295030    7.8906328137    7.6712815744
     C    17.7691676061    7.6342120824    8.6250554422
     C    17.8870291529    6.3793457381    9.2458235842
     C    17.0273798711    5.3288842672    8.9406172476
     N     5.9973727330    5.8727795671   -1.0369847443
     C     4.9156815255    5.4760541953   -1.7101656713
     N     4.2184104996    4.3637858268   -1.4549736587
     C     4.4351938065    6.3343716212   -2.8364843314
     O     4.3482270539   -2.1139439414    4.0177300321
     C     5.4610937465   -1.5055278332    4.6473364734
     H     0.5928879391    0.3733038949   -1.7814748680
     H     0.0147089465   -0.3605837892   -0.2596010517
     H     1.1176935068   -1.2744824170   -1.3350060045
     H     1.1921725192   -1.9445339241    0.8167277437
     H     2.6972790979   -3.7162605200    3.8031930740
     H     0.5357205697   -3.7839762479    1.6120681211
     H    -2.2197210156   -8.0469826927    2.3735451181
     H    -2.1303645577   -9.8943031654    4.0569597211
     H    -0.4418619120   -9.8981382848    5.8486938027
     H     1.2341265801   -8.0612823492    6.0436319465
     H     5.1414848568    0.1830150453    2.8638943922
     H     5.1583459364    1.8712580783    1.4447868114
     H     3.0762359080    2.2114641498   -0.7755351846
     H     8.0075810234    6.3993088661    0.3703479825
     H     7.5426646102    3.8396437081    2.0091841383
     H     9.6844289858    6.9266565745    1.5564102371
     H    12.1887055347    9.4016286036    2.0359761751
     H    10.4614386305    8.9754006982    2.1994699104
     H    11.4747901939    8.1633493649    0.9666434143
     H    11.0362308739    3.8029445106    5.1383968292
     H     8.5416553400    1.3232640822    4.6586012517
     H     9.2451428938    2.5712885536    5.7233510496
     H    10.2702894915    1.7482496195    4.5075716158
     H    13.0747475341    6.9587485898    4.8060284825
     H    12.9573589945    4.1092296431    5.9775682160
     H    16.6849824832    8.8559347381    7.1858019910
     H    18.4622413055    8.4261867294    8.8942174840
     H    18.6712330796    6.2288028745    9.9824674621
     H    17.1184300009    4.3587893958    9.4197785870
     H     5.1046556533    7.1819396915   -2.9913127302
     H     3.4267663066    6.7035704753   -2.6187570238
     H     4.3692986238    5.7433746405   -3.7559337793
     H     5.7278868151   -2.1606874410    5.4776157278
     H     5.2048857560   -0.5117749834    5.0336086963
     H     6.3117108784   -1.4226488129    3.9601579134
