97
-3.4922414802839357e+03 frame 82   xyz file generated by TeraChem
     C    -0.6037863768    2.8305960724   -0.9824071146
     N    -0.4089547633    1.4005291823   -0.8356162152
     C     0.8747490797    0.9378649192   -0.5262525561
     C     1.8923733397    1.7962301779   -0.0861759268
     C     3.1599913724    1.3129462998    0.2031336419
     C     3.4594380264   -0.0535180964    0.1041378144
     C     2.4380017857   -0.9156175471   -0.3258216857
     C     1.1821479208   -0.4293994343   -0.6568539491
     S    -0.0346084426   -1.5185616105   -1.3376542569
     C    -1.4691030817   -0.7813837496   -0.6059430013
     C    -1.5191606081    0.6158594104   -0.4737644723
     C    -2.6974823664    1.1793530264    0.0285413093
     C    -3.7846886180    0.3796065451    0.3625064022
     C    -3.7393150128   -1.0137367029    0.2354755439
     C    -2.5486619937   -1.5771213815   -0.2452000426
     C    -4.8902557914   -1.8622766037    0.6071356705
     C    -6.2060659757   -1.4116541519    0.4537753759
     C    -7.3002170026   -2.1944496335    0.8152711348
     C    -7.0923634999   -3.4717801939    1.3430404587
     C    -5.7823691532   -3.9434653743    1.4971835186
     C    -4.7057270218   -3.1503605431    1.1378818433
     O    -8.0761275640   -4.3190523237    1.7276470960
     C    -9.4218877233   -3.8605852236    1.6842105447
     C   -10.3219249128   -4.9489256856    2.2496712680
     C    -9.9590741586   -5.2590166728    3.6998082832
     C   -11.7856118463   -4.5226512162    2.0872562315
     C   -12.7930785682   -5.6122132840    2.4367179857
     C     4.7810917907   -0.5541810021    0.4620197280
     C     5.7119124939    0.0471122220    1.2835427478
     C     6.8735899121   -0.7388398504    1.4258687352
     C     6.8393155333   -1.9461442374    0.7168404506
     S     5.3484216482   -2.0991122647   -0.1532202001
     C     7.9806048763   -2.7423542999    0.8750427837
     C     8.9051212943   -2.1385839355    1.7220830527
     S     8.3464261273   -0.5739979224    2.3134070537
     C    10.1430067828   -2.6612536779    2.1260020544
     C    10.8683515259   -3.8959304439    1.8678983643
     O    10.6959929378   -4.9036686880    1.1924293194
     C    11.9397599833   -3.4588107119    2.7976557448
     C    13.0533194182   -4.2175575150    3.1086379041
     C    14.1559502560   -4.1225356865    3.9637329766
     N    14.5121823748   -3.1819114106    4.8562591503
     C    13.8329889376   -1.9503665711    5.2006119700
     C    15.6910464063   -3.5391064114    5.5251085458
     C    16.1500615132   -4.7610157682    5.0399991063
     C    15.1953753910   -5.2465058956    3.9828821466
     C    14.5523273787   -6.5848680120    4.3817768768
     C    15.8898514510   -5.3693959422    2.6163156671
     C    17.3043209125   -5.3184381675    5.5539173849
     C    17.9907854891   -4.6339983413    6.5709005079
     C    17.4970601449   -3.4154488376    7.0550847439
     C    16.3429299932   -2.8407451246    6.5356293026
     C    19.2255462911   -5.1669334251    7.2096536705
     O    19.6257633810   -4.7913004446    8.2906391411
     O    19.9158414474   -6.1124470643    6.5497597760
     C    11.1855329867   -2.1898798637    3.0162246664
     O    11.3398218258   -1.1539366792    3.6625941398
     H     0.2150797160    3.2405909532   -1.5774934857
     H    -0.6445331015    3.3613963140   -0.0208016429
     H    -1.5365615884    3.0064459803   -1.5222939365
     H     1.6966224317    2.8559429516    0.0339811565
     H     3.9281060802    2.0147115613    0.5137826073
     H     2.6170650660   -1.9853570501   -0.4019844250
     H    -2.7677160175    2.2509167596    0.1817124521
     H    -4.6730710613    0.8553556121    0.7684331138
     H    -2.4700625573   -2.6528551405   -0.3781374776
     H    -6.3911616726   -0.4320873090    0.0204684469
     H    -8.3023203502   -1.8055785455    0.6707120210
     H    -5.6309338657   -4.9331639581    1.9187114390
     H    -3.6996517116   -3.5293110985    1.2978311519
     H    -9.7002834580   -3.6319223033    0.6458357766
     H    -9.5186262882   -2.9378038216    2.2756571108
     H   -10.1585749186   -5.8517471405    1.6421196621
     H   -10.1522361214   -4.3865939878    4.3379198628
     H    -8.8999754437   -5.5177282339    3.7919948125
     H   -10.5435427720   -6.0979136739    4.0906528311
     H   -11.9498861661   -4.2069581177    1.0476555531
     H   -11.9690104772   -3.6364057372    2.7119013366
     H   -12.6246829767   -6.5105153765    1.8304976906
     H   -13.8168596924   -5.2701633028    2.2497632436
     H   -12.7310324034   -5.9039300373    3.4904527962
     H     5.5448573462    0.9938091774    1.7839259699
     H     8.1556744663   -3.7115034286    0.4222452058
     H    13.0571331327   -5.1488282994    2.5414654140
     H    14.5483085504   -1.1248965489    5.1357930152
     H    13.4648974797   -2.0183575353    6.2300090236
     H    12.9963444808   -1.7449289518    4.5335163395
     H    14.0384966227   -6.5072867475    5.3446140695
     H    15.3318797032   -7.3494611264    4.4627269334
     H    13.8337449445   -6.9101408523    3.6235121575
     H    16.3510414663   -4.4227012616    2.3188424191
     H    15.1758001282   -5.6714133810    1.8438932385
     H    16.6707263352   -6.1345018015    2.6779563119
     H    17.6389722914   -6.2878406136    5.1908619208
     H    18.0401904315   -2.9188838488    7.8524884335
     H    15.9729168464   -1.8939587592    6.9142575395
     H    19.5808296568   -6.2331490012    5.6473297102
