139
-3.2832794655088928e+03 frame 120   xyz file generated by TeraChem
     C     3.1756838769    1.2284711940    5.0259231229
     O     4.1712039161    0.2842975891    4.6516141666
     C     3.7926301570   -0.5527048211    3.6334804319
     C     3.3941392177   -1.8457736040    3.9670473080
     C     3.0117425522   -2.7710762657    2.9971649778
     C     3.0255539671   -2.3515278863    1.6605406974
     C     3.4452721823   -1.0749086809    1.3181020111
     C     3.8488982932   -0.1495904660    2.2886730656
     N     4.3024869943    1.1280093009    1.8889604817
     C     5.3984725204    1.7578916262    2.5209296976
     C     5.3259783073    3.0921935182    2.9157818809
     C     6.3907037040    3.7251894460    3.5493732350
     C     7.5634232772    3.0237497213    3.8309151052
     C     7.6554504399    1.6910022849    3.4166128247
     C     6.6026475308    1.0609087144    2.7571151038
     O     6.6544384023   -0.2206981431    2.3156648505
     C     7.8379391246   -0.9612954246    2.5458811131
     C     8.7600442274    3.7218277559    4.4902236311
     C     8.3342708285    4.7153316269    5.5799919074
     C     7.2899197402    4.3949726227    6.4568881717
     C     6.9506696760    5.2444179945    7.5063697110
     C     7.6510471791    6.4332295649    7.7025710368
     C     8.6946804356    6.7594636467    6.8406160962
     C     9.0333757539    5.9075618210    5.7906486996
     C     9.6184864367    4.3586079309    3.3957972884
     C     9.2619595606    5.3342649866    2.4744254321
     C    10.2100673241    5.7641584665    1.5438638000
     C    11.4961692772    5.2186673033    1.5336548793
     C    11.8569583598    4.2368429410    2.4543146277
     C    10.9111348459    3.8116245293    3.3864399845
     C    11.0036096448    2.8149651668    4.4546804267
     C     9.7613577299    2.7385941043    5.1042116294
     C     9.5747102542    1.8607004734    6.1631932629
     C    10.6403193347    1.0546719267    6.5693374052
     C    11.8773183709    1.1321946374    5.9246513582
     C    12.0693185026    2.0134132233    4.8623993019
     C     3.5108701798    1.8629303464    0.9767556489
     C     2.1207664376    1.9166547553    1.1208762159
     C     1.3231496952    2.6281195627    0.2332592200
     C     1.8894055717    3.3355547274   -0.8304560451
     C     3.2789160771    3.2881755004   -0.9753681988
     C     4.0837650900    2.5552802887   -0.1083218385
     O     5.4347796868    2.5682359855   -0.3260052775
     C     5.9556415684    1.3452563355   -0.8395040775
     C     1.0386855932    4.2171890109   -1.7505366129
     C     1.5302267549    4.2104943252   -3.2046733415
     C     1.9676647326    3.0197876906   -3.7983823333
     C     2.3333459544    2.9817889320   -5.1413786442
     C     2.2686256502    4.1354902053   -5.9202831421
     C     1.8314313691    5.3239533528   -5.3416740502
     C     1.4649042652    5.3600256738   -3.9974624669
     C     0.9736331366    5.6225549467   -1.1479505316
     C     2.0168073746    6.4987212896   -0.8811067032
     C     1.7266884140    7.7419080570   -0.3150788412
     C     0.4092403011    8.0981150426   -0.0162610119
     C    -0.6400016181    7.2198747686   -0.2796526173
     C    -0.3500412178    5.9803563763   -0.8484918494
     C    -1.2300642490    4.8741568982   -1.2287881246
     C    -0.4432317206    3.8322478542   -1.7442856148
     C    -1.0345806064    2.6545178865   -2.1809798169
     C    -2.4220560604    2.5227121759   -2.0955410410
     C    -3.2056123737    3.5604656756   -1.5848390358
     C    -2.6159462475    4.7450198634   -1.1477006068
     C     2.4992924011   -4.1659830546    3.3763415416
     C     2.9754360371   -5.2466936502    2.3971227741
     C     4.2816194636   -5.2117977947    1.8925493354
     C     4.7581139484   -6.2273329219    1.0681142268
     C     3.9368347023   -7.3018129878    0.7316170916
     C     2.6383553267   -7.3500179084    1.2319826161
     C     2.1631846662   -6.3327366755    2.0578914089
     C     0.9762869688   -4.1014398896    3.5185202039
     C     0.0285457910   -3.7730631035    2.5586300408
     C    -1.3206416662   -3.7551656066    2.9183850903
     C    -1.7131600179   -4.0571542726    4.2247435654
     C    -0.7651463159   -4.3869608177    5.1912823913
     C     0.5811500562   -4.4100957128    4.8299038993
     C     1.7758529606   -4.7199420740    5.6170271701
     C     2.9034550347   -4.5808600481    4.7927276288
     C     4.1748848581   -4.8246410470    5.2941986358
     C     4.3131709595   -5.2039960523    6.6307612258
     C     3.1910511109   -5.3422636052    7.4513774171
     C     1.9128953778   -5.1023184383    6.9508031418
     H     3.6027467896    1.8230826583    5.8362591946
     H     2.2703470678    0.7195937084    5.3804995976
     H     2.9168395551    1.8895477692    4.1906184876
     H     3.3878555565   -2.1048150271    5.0215272498
     H     2.7383336170   -3.0409508296    0.8717236797
     H     3.4833661449   -0.7808786302    0.2725225454
     H     4.4071293155    3.6408072675    2.7275823158
     H     6.2878454400    4.7627359219    3.8522658284
     H     8.5705832318    1.1422279070    3.6049048403
     H     7.6553598622   -1.9511671688    2.1247084362
     H     8.0484857828   -1.0541401109    3.6180076933
     H     8.7004796737   -0.5047960326    2.0451391878
     H     6.7306166231    3.4750167334    6.3114855865
     H     6.1334594303    4.9754597514    8.1708855730
     H     7.3843857792    7.0990226264    8.5191404035
     H     9.2508382361    7.6829044600    6.9810449484
     H     9.8510582450    6.1757580433    5.1282508541
     H     8.2610741319    5.7586772124    2.4725382960
     H     9.9432216623    6.5292688425    0.8196167679
     H    12.2212405380    5.5620344760    0.8003924880
     H    12.8580930607    3.8127682787    2.4433627406
     H     8.6158960677    1.7961524149    6.6712192011
     H    10.5055829525    0.3622843404    7.3961507442
     H    12.6972641713    0.4999846440    6.2553407268
     H    13.0330651818    2.0724987134    4.3625012052
     H     1.6604223218    1.3859015402    1.9497863754
     H     0.2487453534    2.6430673176    0.3875826365
     H     3.7728214442    3.8041318649   -1.7937813890
     H     7.0226537628    1.5120908510   -1.0015609929
     H     5.4762408169    1.0940240738   -1.7937465907
     H     5.8221298754    0.5228690007   -0.1289843858
     H     2.0318825569    2.1129868227   -3.2031286007
     H     2.6725329064    2.0459409060   -5.5783818528
     H     2.5577633644    4.1077488054   -6.9675904976
     H     1.7750007288    6.2325737211   -5.9357400484
     H     1.1244350401    6.2953872496   -3.5635644638
     H     3.0449116877    6.2274230331   -1.1078723478
     H     2.5344471149    8.4375992276   -0.1039325446
     H     0.2012651162    9.0686022319    0.4266458074
     H    -1.6645005349    7.4987350391   -0.0457571218
     H    -0.4317192635    1.8439746606   -2.5824393298
     H    -2.8961748517    1.6044836971   -2.4319337236
     H    -4.2845973110    3.4429180396   -1.5283915734
     H    -3.2278170100    5.5516121365   -0.7512901398
     H     4.9301191851   -4.3756219799    2.1397210586
     H     5.7743944549   -6.1753995463    0.6856951812
     H     4.3059169922   -8.0929352769    0.0842692745
     H     1.9859967722   -8.1819227582    0.9787010164
     H     1.1479321183   -6.3859110229    2.4397943508
     H     0.3255896634   -3.5330974986    1.5407618574
     H    -2.0717157559   -3.5022205465    2.1747283422
     H    -2.7671799191   -4.0349010507    4.4889579890
     H    -1.0722641434   -4.6226113523    6.2073216244
     H     5.0526217363   -4.7238121219    4.6608893072
     H     5.3036140144   -5.3953920834    7.0350767520
     H     3.3158538232   -5.6411092251    8.4888388527
     H     1.0411926285   -5.2134304463    7.5912099105
