59
-1.5822648921986815e+03 frame 68   xyz file generated by TeraChem
     C     2.6222223285    0.1395474941    0.9487010280
     O     2.8228506991   -0.5818081390   -0.2530259536
     C     3.4098851279    0.0662846256   -1.2887820092
     C     3.8561973384    1.3901508525   -1.2449654937
     C     4.4522528369    1.9568808878   -2.3692056779
     C     4.5900462367    1.2298155417   -3.5514642337
     C     4.1401092231   -0.0959461336   -3.5873688112
     C     3.5640756849   -0.6738274650   -2.4682458000
     N     5.2002874900    1.8083074375   -4.6984770986
     C     6.2550690616    1.0833970222   -5.3181500265
     C     6.2337301094    0.8119460559   -6.6862248386
     C     7.2626780505    0.0925270777   -7.2899775074
     C     8.3220291352   -0.3877784304   -6.5151739599
     C     8.3388457242   -0.1319365411   -5.1378189976
     C     7.3215413305    0.6009963815   -4.5492624410
     O     9.3652530151   -1.1045224241   -6.9992652467
     C     9.3886776286   -1.3794876027   -8.3876294624
     C     4.7764354651    3.0312535843   -5.1994422489
     C     5.6304909766    3.8287120016   -5.9882705718
     C     5.2022466218    5.0427543094   -6.4905340848
     C     3.9086186276    5.5328530810   -6.2359627435
     C     3.0666433437    4.7363273594   -5.4384280883
     C     3.4798571062    3.5185381408   -4.9348415148
     C     3.4341148030    6.8117606864   -6.7633031704
     C     4.1573784207    7.5539432373   -7.7193515970
     C     3.6795908264    8.7654373062   -8.1686437031
     C     2.4488364525    9.2507244336   -7.6770910841
     C     1.7897417506    8.4163390130   -6.7449211400
     N     2.2468648001    7.2628712724   -6.2986866607
     C     1.7510993587   10.4605266332   -8.0163978470
     C     1.9819769626   11.5390889665   -8.8341309108
     C     3.1884799619   11.8493538413   -9.6479348100
     O     4.2465218978   11.2657600137   -9.5577221533
     O     3.0847174007   12.8639340732  -10.5182641208
     C     0.9337770604   12.5072915078   -8.8901419942
     N     0.1031019695   13.3195776074   -8.9721735001
     H     2.1239819417   -0.5492200884    1.6324337679
     H     1.9846400446    1.0169640453    0.7855822800
     H     3.5754240252    0.4604241065    1.3862563609
     H     3.7599785636    1.9833878401   -0.3422757137
     H     4.8113514593    2.9813569384   -2.3257912949
     H     4.2475928697   -0.6719713063   -4.5021272429
     H     3.2120356424   -1.7011292383   -2.4912151060
     H     5.4041204394    1.1673404042   -7.2911795656
     H     7.2177234067   -0.0984874328   -8.3565526363
     H     9.1676983383   -0.5087253106   -4.5455946563
     H     7.3451394078    0.8021548614   -3.4818943161
     H    10.2991617154   -1.9537526390   -8.5647412665
     H     9.4208535751   -0.4549564679   -8.9770741908
     H     8.5185417484   -1.9734168794   -8.6925965742
     H     6.6425121698    3.4947153890   -6.1909910121
     H     5.9100405783    5.6283510278   -7.0691594521
     H     2.0604950972    5.0867460657   -5.2331773695
     H     2.7937580133    2.9241535746   -4.3406325504
     H     5.0928661129    7.1780442739   -8.1177747646
     H     4.2394391282    9.3435096911   -8.8916483022
     H     0.8241253778    8.7311770996   -6.3464950490
     H     0.7892354797   10.5211851107   -7.5076811243
     H     2.1927467270   13.2520397756  -10.5391128218
