83
-1.9596186693401878e+03 frame 82   xyz file generated by TeraChem
     C     5.0461808565    1.0221197538    1.1291973498
     O     4.2379748311    0.1396348258    1.8865096470
     C     4.7144227114   -1.1061639570    2.1195482409
     C     5.9619681724   -1.5725198975    1.6991344148
     C     6.3395958557   -2.8788581287    1.9981558707
     C     5.5072001800   -3.7540704475    2.7088348550
     C     4.2565791809   -3.2565219854    3.1266345331
     C     3.8666079264   -1.9622179374    2.8394392436
     C     5.9676699885   -5.1144032905    2.9667666460
     C     5.2802157819   -6.1028879548    3.5729136753
     C     5.7443304536   -7.4684975834    3.8103985537
     C     4.8296107251   -8.4053856697    4.3659932952
     C     5.1759106886   -9.7148064069    4.5955534423
     C     6.4734444703  -10.1839853054    4.2825570305
     C     7.4195828990   -9.2509249974    3.7452932058
     C     7.0266784408   -7.9146016763    3.5232726982
     C     8.7427502176   -9.6806151864    3.4395580054
     C     9.1473473517  -10.9787695728    3.6344876329
     C     8.1997717986  -11.8830655447    4.1447791273
     C     6.9037831845  -11.5235671275    4.4600882470
     C     6.2434374485  -12.7268066873    4.9623109969
     C     5.0655969649  -12.8819031551    5.5206408253
     C     3.8902137606  -13.0912726226    6.0867511289
     C     2.7116901266  -13.4212706652    5.2352094048
     C     2.5290797273  -12.7999977539    3.9927352060
     C     1.4551039944  -13.1443147761    3.1766603726
     C     0.5447823060  -14.1153419977    3.5897201257
     C     0.7160104112  -14.7385094839    4.8250482437
     C     1.7878041036  -14.3933361734    5.6431753647
     C     3.7314691677  -12.9886838197    7.5638449256
     C     2.5248593142  -12.5461290756    8.1229469322
     C     2.3890878661  -12.4125128640    9.5021806652
     C     3.4537282021  -12.7215516761   10.3461977317
     C     4.6587011302  -13.1620831897    9.7992744939
     C     4.7967210928  -13.2952536458    8.4221177760
     C     7.2532288512  -13.8766346238    4.7213361567
     O     8.4865972759  -13.1833419410    4.3838645192
     C     6.9110564905  -14.7491012943    3.5154772189
     C     5.6863513746  -14.6949654342    2.8535286770
     C     5.4403049856  -15.5193581237    1.7541678527
     C     6.4185398081  -16.3989731572    1.3036452579
     C     7.6494582399  -16.4547413889    1.9596677198
     C     7.8921472713  -15.6381940265    3.0575031326
     C     7.4918037928  -14.6943645051    5.9785223589
     C     6.6813613320  -15.7963911793    6.2654433727
     C     6.8503348684  -16.5037662484    7.4532665052
     C     7.8364147714  -16.1240916091    8.3618674513
     C     8.6506297601  -15.0295263956    8.0765337893
     C     8.4774223543  -14.3154537134    6.8930148361
     H     4.4759672518    1.9475658005    1.0372713229
     H     5.2501525355    0.6173720325    0.1306468921
     H     5.9955716064    1.2280271437    1.6380250253
     H     6.6409770657   -0.9345265268    1.1440084587
     H     7.3128472268   -3.2316846185    1.6634180810
     H     3.5760101722   -3.8924609286    3.6859466929
     H     2.9007751276   -1.5850324365    3.1637094426
     H     6.9749703563   -5.3207984828    2.6045252774
     H     4.2652857713   -5.9069442113    3.9179991822
     H     3.8245013633   -8.0688308074    4.6109265642
     H     4.4513285716  -10.3987558663    5.0263989963
     H     7.7683099122   -7.2320690357    3.1149235054
     H     9.4417064268   -8.9512140056    3.0376269863
     H    10.1542180881  -11.3100363897    3.4014021948
     H     3.2311241429  -12.0339619872    3.6732848597
     H     1.3266233983  -12.6464451630    2.2191196951
     H    -0.2953516338  -14.3826885665    2.9543792972
     H     0.0137317283  -15.5003130939    5.1534535677
     H     1.9176966828  -14.8876657581    6.6019807251
     H     1.6912871244  -12.2962882667    7.4726473875
     H     1.4472462185  -12.0627696086    9.9170303242
     H     3.3454155255  -12.6218130980   11.4229573094
     H     5.4941681759  -13.4116022495   10.4484263024
     H     5.7345518231  -13.6462666614    8.0001778078
     H     4.9144573644  -14.0108348424    3.1910134106
     H     4.4783569636  -15.4649767132    1.2511569883
     H     6.2267366206  -17.0390033341    0.4464371942
     H     8.4212657777  -17.1381274541    1.6152126350
     H     8.8513288391  -15.6851379255    3.5665089601
     H     5.9166695753  -16.1030271057    5.5572659090
     H     6.2127120795  -17.3580907641    7.6646797016
     H     7.9725580249  -16.6808565094    9.2852070678
     H     9.4264588739  -14.7292579161    8.7760578261
     H     9.1131729663  -13.4646795573    6.6704621529
