31
-8.8809981598562968e+02 frame 26   xyz file generated by TeraChem
     C     1.3900442324   -0.4621105939   -1.2621180214
     O     2.3655007700   -0.0993029443   -0.2991489060
     C     3.0726281017   -1.0900186788    0.2857183676
     C     2.9121494323   -2.4499869696    0.0016504683
     C     3.7071780371   -3.3867665173    0.6531122022
     C     4.6568764159   -2.9985284943    1.6029185438
     C     4.7987122334   -1.6303811617    1.8860141294
     C     4.0246789353   -0.6879269373    1.2330206278
     C     5.4917251077   -4.0038044538    2.2881317068
     C     6.2040678725   -4.9686604559    1.5607193018
     C     6.2253305267   -4.9914182156    0.1449910799
     N     6.3053440162   -5.0776004166   -1.0148234444
     C     6.9966663436   -5.9291059683    2.2697380515
     N     7.6790034962   -6.8743458684    1.6085771544
     N     7.1000759115   -5.9344367892    3.5997552462
     C     6.4332766642   -5.0167769310    4.3024877843
     C     5.6009288709   -4.0263738586    3.6861808984
     C     4.8676779048   -3.1474555932    4.5199725073
     N     4.2964362471   -2.4677618598    5.2753680085
     N     6.5671465164   -5.0647743617    5.6345861282
     H     0.9468587645    0.4736370863   -1.6049194485
     H     0.6112951196   -1.0944060894   -0.8197717826
     H     1.8451574866   -0.9838744779   -2.1120338558
     H     2.1758913971   -2.7888271093   -0.7183961985
     H     3.5646384815   -4.4406264178    0.4313675455
     H     5.5424044111   -1.3006733749    2.6060136588
     H     4.1438536585    0.3718612607    1.4372706294
     H     7.6982259920   -6.9144420653    0.6007615257
     H     8.2770999385   -7.4982896053    2.1296476169
     H     7.1448628255   -5.7847054298    6.0423588246
     H     6.1046922723   -4.4086850784    6.2454386854
