46
-1.0341814144980765e+03 frame 25   xyz file generated by TeraChem
     C     1.0115002721   -0.2197852301   -0.0734878495
     O     2.2880049975   -0.3972893122   -0.6580008625
     C     3.1639874517   -1.2126300826   -0.0192906280
     C     2.8915999626   -1.9018945560    1.1647838814
     C     3.8700540387   -2.7196384905    1.7266980865
     C     5.1320970954   -2.8742471847    1.1428458300
     C     5.3838667905   -2.1673271078   -0.0453886461
     C     4.4216056729   -1.3526818834   -0.6195817655
     C     6.1571272351   -3.7494603621    1.7512229988
     C     7.0345270961   -4.4969516967    0.9518456051
     C     8.0012621146   -5.3375909687    1.5017080802
     C     8.0814138661   -5.4377691288    2.8872275220
     C     7.2235341114   -4.6988358331    3.7043439797
     C     6.2748751570   -3.8584666482    3.1492679292
     C     7.5905474462   -4.9241992803    5.1548705274
     C     8.4061143092   -3.7161559046    5.6445185499
     C     6.3865957574   -5.1266933611    6.0734217574
     C     8.4805520079   -6.2060671010    5.0350119464
     N     8.9877224808   -6.2120220382    3.6408697526
     C     9.1071153441   -7.6139730797    3.2462423173
     C     8.1123512127   -8.3504495345    4.1388908408
     O     7.7804364597   -9.5228600536    4.0563337759
     N     7.6848603009   -7.4409538783    5.0510799140
     C     9.6121751503   -6.3158131829    6.0480046271
     H     0.4738993260    0.4682554249   -0.7276519687
     H     1.0887753598    0.2164881625    0.9299102858
     H     0.4642484339   -1.1684726833   -0.0143159539
     H     1.9246043035   -1.8216039209    1.6497252386
     H     3.6290572801   -3.2688719234    2.6334380009
     H     6.3604619437   -2.2424290175   -0.5169293065
     H     4.6271467315   -0.8031184182   -1.5339398402
     H     6.9459878239   -4.4407474338   -0.1300452757
     H     8.6638926122   -5.9058686390    0.8542687837
     H     5.6253345796   -3.2681013689    3.7921463102
     H     7.7869120119   -2.8153184164    5.5788863219
     H     9.2982689703   -3.5586779646    5.0296992352
     H     8.7158960803   -3.8382052515    6.6882654099
     H     5.8098234236   -4.1980638307    6.1423791083
     H     6.7084860527   -5.3885953010    7.0889685411
     H     5.7212398929   -5.9113943377    5.7022068220
     H    10.1147511353   -8.0033899143    3.4340933750
     H     8.8787124132   -7.7632551936    2.1890116582
     H     7.2074029918   -7.7556926485    5.8859133945
     H    10.3032899700   -5.4736086356    5.9712759455
     H    10.1711387450   -7.2409428855    5.8751500939
     H     9.2096227995   -6.3501072554    7.0666345959
