43
-1.1609895293797947e+03 frame 54   xyz file generated by TeraChem
     C     2.4488085657   -0.6067669421    0.3425619525
     O     2.2408724445    0.7839778292    0.5196577622
     C     2.9431425844    1.6350938471   -0.2601660601
     C     3.8737929135    1.2448428229   -1.2287244345
     C     4.5391552640    2.2135270406   -1.9728918196
     C     4.2914591568    3.5769284364   -1.7844652391
     C     3.3562616033    3.9525535943   -0.8057888540
     C     2.6938159356    2.9984974377   -0.0537250484
     C     4.9806832539    4.5841284225   -2.6026001563
     C     5.2780964362    4.3976439908   -3.9117586497
     N     5.9165857003    5.4165916553   -4.5895255935
     N     6.2628609256    5.3538864359   -5.8733403060
     C     6.8282495358    6.5466653382   -6.1458304013
     C     6.8355426375    7.3770556414   -5.0083325915
     C     6.2370246283    6.6206181346   -4.0180580074
     C     5.9332373494    6.8601230195   -2.6174079496
     O     6.1974826395    7.8945473823   -2.0138266619
     N     5.3138538616    5.7907340450   -2.0036843411
     C     7.3344739978    6.8369801498   -7.4901310494
     C     7.2884358189    5.8703724605   -8.4999468123
     C     7.7610121086    6.1329224389   -9.7817609876
     C     8.2961961902    7.3901819739  -10.0784248134
     C     8.3500116539    8.3683110256   -9.0770908979
     C     7.8763787228    8.0927916570   -7.8057457897
     O     8.7795170058    7.7532834483  -11.2904833593
     C     8.7731463386    6.7815001569  -12.3207665947
     H     1.7846840503   -1.1009051689    1.0527266606
     H     3.4870499607   -0.8847904376    0.5594666436
     H     2.1933456765   -0.9208531284   -0.6764180348
     H     4.0979599033    0.1978442193   -1.4004127480
     H     5.2809421047    1.8985467696   -2.7018787716
     H     3.1182134966    5.0015136177   -0.6477576825
     H     1.9634755324    3.2881486198    0.6959807958
     H     5.0233923407    3.5174969680   -4.4836898810
     H     7.2178856710    8.3814351908   -4.9032291660
     H     5.1488595798    5.9050580380   -1.0100576779
     H     6.8739463368    4.8915618093   -8.2780135052
     H     7.7081606712    5.3560536839  -10.5366635650
     H     8.7679537040    9.3413854105   -9.3184394273
     H     7.9272191157    8.8700621542   -7.0481869577
     H     9.2139809453    7.2660923336  -13.1930695484
     H     7.7522311628    6.4600375731  -12.5597727346
     H     9.3741840464    5.9063955271  -12.0461728273
