50
-1.2029984919859885e+03 frame 90   xyz file generated by TeraChem
     C     0.7928086730   -5.1106978263    5.4722242260
     N     1.1704186759   -3.8937892081    4.7717055233
     C     1.2372985707   -2.7078363576    5.4191456944
     C     1.3102147931   -1.4706516201    4.5372506940
     C     1.0481866312    0.0745841387    6.0206557712
     C     1.2041585786   -0.2757360045    7.4303042780
     C     1.2044163277   -1.6208559992    7.7552426039
     C     1.1633738888   -2.6928762133    6.8267435041
     C     1.7462511472    0.7542733897    8.2716006736
     C     2.3861710794    1.9573529871    7.9172387356
     C     3.3648983187    2.5047199939    8.8727853369
     O     3.0340564976    2.6388960131   10.1816969266
     C     4.6395601754    2.7803450997    8.4634407894
     C     5.8804356786    2.8706530230    9.2531984078
     C     6.8578158774    3.5957217995    8.6160510205
     C     7.4977369312    2.7542844085    7.5946416928
     C     6.5105337735    2.1787152352    6.8300415119
     C     5.0839799300    2.3461462236    7.0994630154
     C     4.0749685851    2.0475910230    6.2206094977
     C     2.7067343797    2.3813349938    6.5392617116
     N     1.8619301802    2.6114516593    5.5534408688
     C     1.9449687598    1.8690585704    4.4012482932
     C     0.6748815846    1.6098093260    3.6611921025
     C    -0.0941122527    0.5260395819    3.8848049417
     C     0.1393350325   -0.5371958193    4.9416461330
     C     2.2911133059   -0.4303469729    5.1248652601
     C     2.8792250948    0.8310116725    4.4929751875
     N     4.0869573351    1.1794217654    5.0925024059
     C     1.5596813128   -4.0634528173    3.3753333976
     H     1.6205009485   -5.5113000342    6.0724018621
     H     0.5013794581   -5.8623283275    4.7372099922
     H    -0.0601637394   -4.9214805480    6.1295139226
     H     1.3952462944   -1.7140690738    3.4798071005
     H     0.8513821851    1.1317797892    6.0309760254
     H     1.3229708432   -1.9140433910    8.7988502997
     H     1.1659035529   -3.6698132414    7.2968790400
     H     1.8775480831    0.4743514845    9.3190873163
     H     2.0698029654    2.5805826289   10.2672911181
     H     6.1981115695    1.8890467369    9.6283463729
     H     6.6007943778    4.6053369633    8.2717056339
     H     8.5354275429    2.7655979305    7.2605680869
     H     6.7812297195    1.7065092871    5.8839986504
     H     0.3813042502    2.3060057561    2.8755774437
     H    -0.9578690992    0.3709073853    3.2383423996
     H    -0.7977699196   -1.0234845106    5.2294538686
     H     3.0871903729   -0.9085966483    5.7025697307
     H     4.7041239466    0.3871022491    5.2396126933
     H     1.8429544630   -5.1064556893    3.2244531877
     H     2.4263021240   -3.4486910378    3.1274825214
     H     0.7376315516   -3.8258089378    2.6894887929
