28
-7.4067615232621233e+02 frame 27   xyz file generated by TeraChem
     O     1.6714388683    2.0462417969    0.1700225074
     C     1.3035799513    0.8753336320    0.1525749172
     N     2.1608497831   -0.1547341632    0.4336234073
     C     1.8650750420   -1.5239166410    0.0446784471
     N     0.5039907519   -1.8063299161    0.4625784631
     C    -0.4604150716   -0.8902954047    0.0742308941
     C    -0.0919390741    0.4575903076   -0.1027433567
     C    -1.0560661671    1.4082976229   -0.4441755367
     C    -2.3815530301    1.0398608831   -0.6199288576
     C    -2.7453804840   -0.2986614157   -0.4371212411
     C    -1.8029433835   -1.2576128435   -0.0927625324
     C     2.8257049575   -2.4750965601    0.7210295124
     C     2.8804317896   -2.5621214099    2.1120837137
     C     3.7802050798   -3.4515535134    2.6873270712
     N     4.6044654822   -4.2363364172    1.9836021012
     C     4.5429684687   -4.1436518088    0.6541145307
     C     3.6776463620   -3.2853743639   -0.0222694219
     H     3.1385503306    0.1051047116    0.4841749163
     H     1.9696341949   -1.6349719568   -1.0503871387
     H     0.2422808773   -2.7757815819    0.3270943332
     H    -0.7364713198    2.4399093023   -0.5606837690
     H    -3.1287617851    1.7800106265   -0.8894535688
     H    -3.7812399236   -0.6000951065   -0.5706155215
     H    -2.0941834610   -2.2960216238    0.0456289315
     H     2.2323504109   -1.9489388247    2.7307880244
     H     3.8430703877   -3.5396786895    3.7705421726
     H     5.2188495665   -4.7877064785    0.0940869300
     H     3.6725005215   -3.2540386597   -1.1086603118
