38
-9.5442794839213184e+02 frame 74   xyz file generated by TeraChem
     C     1.5351403476   -1.5306124611    1.4305505220
     N     2.7182282070   -0.9481186553    0.8282077013
     C     3.2666154175   -1.5077296095   -0.2812942861
     C     2.7040398929   -2.6658632783   -0.8784186930
     C     3.2748641377   -3.2219102158   -2.0005364353
     C     4.4315246447   -2.6802539842   -2.6114063373
     C     4.9862157984   -1.5239126921   -2.0121504948
     C     4.4262828754   -0.9566095462   -0.8893985401
     C     4.9279854838   -3.3481677605   -3.7727498161
     C     5.9856674859   -3.1392239706   -4.6221058870
     N     6.1989272570   -4.0011244554   -5.7005889742
     C     7.2423465112   -3.5582473960   -6.3108519172
     O     7.8061669104   -2.4374519272   -5.7571741707
     C     7.0320048615   -2.1159991095   -4.6508814726
     O     7.3088011540   -1.1531831217   -3.9705145728
     C     7.8721632021   -4.1136204069   -7.4984388097
     C     7.3234088076   -5.2617861043   -8.0881388135
     C     7.9100937024   -5.8086722283   -9.2206011472
     C     9.0470479167   -5.2185470321   -9.7761714264
     C     9.5946587838   -4.0773848324   -9.1926348734
     C     9.0127664337   -3.5226325969   -8.0573352690
     C     3.3128609560    0.2331408542    1.4228483793
     H     1.7147677612   -2.5647190392    1.7509766290
     H     0.6865826466   -1.5283553660    0.7345919863
     H     1.2585644567   -0.9449797669    2.3071359804
     H     1.8176707148   -3.1226075939   -0.4540271402
     H     2.8209318826   -4.1100138918   -2.4345904174
     H     5.8720680511   -1.0751269499   -2.4479648474
     H     4.8866472494   -0.0705002705   -0.4676651316
     H     4.3456471405   -4.2226596052   -4.0643008482
     H     6.4393348346   -5.7117460332   -7.6469224768
     H     7.4812441682   -6.6984303042   -9.6731966816
     H     9.5044114687   -5.6489175735  -10.6629316792
     H    10.4794059743   -3.6164207362   -9.6228358337
     H     9.4381242452   -2.6338932610   -7.6020749062
     H     2.7349101157    0.5159145593    2.3025590809
     H     3.3115529233    1.0796820043    0.7245658615
     H     4.3477210771    0.0475274118    1.7369654732
