86
-2.5287675886004354e+03 frame 101   xyz file generated by TeraChem
     C     0.6761969080   -0.0727475526    1.0118398693
    Si     2.5341722190    0.0945929434    0.8482138778
     C     3.3626347085    0.4662382577    2.4878666152
     C     2.6288728398    0.5063980901    3.6822945509
     C     3.2552543867    0.7713511566    4.8994539255
     C     4.6284613947    1.0011706344    4.9400033596
     C     5.3745984295    0.9665915827    3.7618574452
     C     4.7463215299    0.7015907216    2.5487801535
     C     3.1013803180    1.2802182748   -0.5042295291
     C     3.7882936057    0.5780574729   -1.4623218421
     C     3.8683381027   -0.8933775052   -1.2469307016
     C     3.3100991184   -1.3520847297   -0.0809145437
     C     3.1908471217   -2.6952311802    0.3123019759
     C     3.0393227918   -3.8364089831    0.7367886073
    Si     2.8557240077   -5.5629032765    1.3362883147
     C     1.3460129921   -6.3159967098    0.4926945563
     C     0.7463962063   -5.7335234132   -0.6338505910
     C    -0.3562964551   -6.3231953411   -1.2502303191
     C    -0.8836951909   -7.5111672410   -0.7480248046
     C    -0.3041629989   -8.1066962941    0.3713178790
     C     0.7978607089   -7.5129976052    0.9827262789
     C     4.4066612942   -6.5315936116    0.8899543179
     C     2.6107160827   -5.5488542535    3.2006380880
     C     4.4508055714   -1.7967166225   -2.2625822826
     C     4.0447274883   -1.7273223439   -3.6029956728
     C     4.5541597238   -2.6176046281   -4.5426967386
     C     5.4905463710   -3.5785705184   -4.1633019493
     C     5.9074925610   -3.6501317329   -2.8355292528
     C     5.3868847978   -2.7706564921   -1.8905206284
     C     4.4609055359    1.2318238436   -2.6059637200
     C     5.8098239301    0.9729639268   -2.8892464232
     C     6.4546940172    1.6389384638   -3.9264440039
     C     5.7591140889    2.5600724344   -4.7086575318
     C     4.4154892871    2.8166047597   -4.4426277146
     C     3.7725538886    2.1625313890   -3.3954860054
     C     2.9405327870    2.6745184985   -0.4500865455
     C     2.7514975150    3.8804323291   -0.3259501911
    Si     2.4924250094    5.6958642642   -0.2121898766
     C     0.7109305185    6.0455373643   -0.7262253460
     C    -0.2989425494    5.0808409716   -0.5900387394
     C    -1.6184783545    5.3621942302   -0.9390493114
     C    -1.9549092036    6.6200331657   -1.4364043552
     C    -0.9671693703    7.5923568209   -1.5828590623
     C     0.3504457386    7.3054365581   -1.2307807533
     C     2.7897720905    6.2485777967    1.5619420210
     C     3.6864974146    6.5638786658   -1.3762335418
     H     0.2345614908    0.8485647501    1.4075346349
     H     0.4165756785   -0.8959454894    1.6869502924
     H     0.2283558028   -0.2772077905    0.0339690735
     H     1.5554423192    0.3304547252    3.6689376572
     H     2.6702178104    0.7988527224    5.8151737311
     H     5.1179125698    1.2083439772    5.8882582624
     H     6.4461249439    1.1473878781    3.7899300588
     H     5.3412737257    0.6797406701    1.6372735734
     H     1.1436277114   -4.8021092493   -1.0326003615
     H    -0.8055535668   -5.8532904656   -2.1217334162
     H    -1.7450433723   -7.9712338005   -1.2258423631
     H    -0.7121697510   -9.0325990217    0.7692392230
     H     1.2326727340   -7.9932173542    1.8580027135
     H     4.5795702434   -6.5273812424   -0.1916744422
     H     4.3090187189   -7.5744662809    1.2146661289
     H     5.2884485827   -6.1039881045    1.3806189993
     H     1.7277846689   -4.9639375558    3.4798945033
     H     3.4824837090   -5.1142939522    3.7026251882
     H     2.4771909045   -6.5681107254    3.5823712354
     H     3.3161100642   -0.9805649827   -3.9061283026
     H     4.2207224905   -2.5584139638   -5.5754072662
     H     5.8941022686   -4.2676982710   -4.9004496653
     H     6.6416778526   -4.3921931445   -2.5327879626
     H     5.7152913103   -2.8268494268   -0.8567658729
     H     6.3583026196    0.2553710470   -2.2854466937
     H     7.5036662424    1.4360400556   -4.1255336394
     H     6.2623759543    3.0736825522   -5.5235777420
     H     3.8638340818    3.5277836105   -5.0518302625
     H     2.7246370405    2.3623765997   -3.1920151874
     H    -0.0489815570    4.0907458659   -0.2131322699
     H    -2.3840872967    4.5983372595   -0.8267564393
     H    -2.9831047138    6.8407706726   -1.7121267807
     H    -1.2224374464    8.5741268362   -1.9742544603
     H     1.1060160209    8.0788933821   -1.3577278966
     H     2.1141969741    5.7369606886    2.2558406949
     H     2.6214955296    7.3279487055    1.6556083390
     H     3.8207354297    6.0370966312    1.8679213435
     H     3.5210644599    6.2602458032   -2.4155505835
     H     4.7221505336    6.3239382892   -1.1108383820
     H     3.5694362214    7.6524299201   -1.3161550035
