39
-1.0465883897940137e+03 frame 58   xyz file generated by TeraChem
     C     1.7635288495   -0.2884395313   -0.4089121343
     O     1.7697201487    0.7269646354    0.5801610311
     C     2.6274799140    1.7590280905    0.4226403493
     C     3.5196114288    1.8908017775   -0.6467412792
     C     4.3692043716    2.9900835878   -0.7040352992
     C     4.3453185141    3.9815060077    0.2822017039
     C     3.4420819425    3.8358916536    1.3482498649
     C     2.5970352422    2.7421976517    1.4203240560
     C     5.2373189501    5.1460108362    0.1966398219
     C     5.5807582513    5.7345146009   -0.9750536392
     N     6.4225769783    6.8282433324   -0.9353573142
     N     6.8335723723    7.4892220222   -2.0136093585
     C     7.6080373222    8.4863316883   -1.5424425218
     C     7.6838463759    8.4514595320   -0.1372336519
     C     6.9046037573    7.3696449008    0.2282828706
     C     6.5578421766    6.7678250459    1.5047871778
     O     6.9579676992    7.1661372893    2.5932608472
     N     5.7281750225    5.6726254926    1.3825440282
     C     8.2415901086    9.4318186272   -2.4688945876
     C     8.1241424645    9.2569565639   -3.8549812456
     C     8.7216635272   10.1532162807   -4.7338480138
     C     9.4476109014   11.2393263354   -4.2458319614
     C     9.5697920509   11.4211922546   -2.8693500461
     C     8.9719701780   10.5263250952   -1.9876868776
     H     1.0090767163   -1.0096472827   -0.0922581104
     H     2.7389420732   -0.7845062619   -0.4741429862
     H     1.4928345324    0.1155819792   -1.3915991404
     H     3.5723136809    1.1386549508   -1.4259029540
     H     5.0799210199    3.0637922978   -1.5225487830
     H     3.3756436769    4.5997169790    2.1189625039
     H     1.8940381989    2.6339016002    2.2408790922
     H     5.2195552576    5.4333324483   -1.9473550627
     H     8.2240108274    9.1056530113    0.5307924885
     H     5.5215979621    5.1917159969    2.2505519412
     H     7.5602900094    8.4110309138   -4.2362966177
     H     8.6209668671   10.0022781543   -5.8055170427
     H     9.9143619945   11.9392399627   -4.9337334158
     H    10.1318678746   12.2650687003   -2.4780453926
     H     9.0713725619   10.6846741486   -0.9173033753
