88
-1.9630154372373736e+03 frame 72   xyz file generated by TeraChem
     C     6.9479140928    1.2635737254    2.1972929158
     C     5.4758682794    1.5355517134    2.5213968929
     C     5.1223290720    2.9973861660    2.3479147094
     C     5.2185937266    3.6323870760    1.1003103005
     C     4.8801976775    4.9674957193    0.9396809407
     C     4.4263419842    5.7369280756    2.0266515217
     C     4.3381224468    5.1013111556    3.2744012731
     C     4.6787707818    3.7616984751    3.4295169950
     C     4.0419465796    7.1425833624    1.9232316968
     C     4.0409854644    7.8997056009    0.8084140760
     C     3.6466562573    9.3040349697    0.7096730537
     C     3.5899112340    9.9013483200   -0.5797243303
     C     3.2151782335   11.2105295089   -0.7604545067
     C     2.8743324009   12.0226090701    0.3473108925
     C     2.9304339394   11.4426676958    1.6569300919
     C     3.3185624575   10.0950227077    1.8017243636
     C     2.5969067436   12.2307511943    2.7958986015
     C     2.2151197878   13.5448363635    2.6822397445
     C     2.1656534616   14.0966223233    1.3897058019
     C     2.4766996589   13.3805683606    0.2495150891
     C     2.3382272094   14.3005819232   -0.8769516373
     C     2.6544490105   14.1477465129   -2.1420446283
     C     3.0372379451   14.0342892530   -3.4007546176
     C     4.4414653923   14.3555156784   -3.7812307746
     C     5.4950949921   14.1368044929   -2.8837477471
     C     6.7997753738   14.4762590233   -3.2252098501
     C     7.0756692194   15.0388466964   -4.4712264492
     C     6.0356445826   15.2575980292   -5.3723802568
     C     4.7292961385   14.9165765569   -5.0327068667
     C     2.0815903057   13.5742611471   -4.4469597306
     C     0.7598627442   14.0357615369   -4.4629693668
     C    -0.1414190482   13.5736815375   -5.4176064466
     C     0.2654503072   12.6437913472   -6.3729474474
     C     1.5809785832   12.1822522652   -6.3689648722
     C     2.4840612130   12.6458535874   -5.4167345787
     C     1.7545334133   15.6042109112   -0.2769507690
     O     1.8295024054   15.3861636829    1.1622850599
     C     0.2735720994   15.8132579175   -0.5749836797
     C    -0.5273327369   14.7962059701   -1.0966460259
     C    -1.8984770617   14.9915012893   -1.2637562880
     C    -2.4834722750   16.2015855186   -0.9029200253
     C    -1.6909675238   17.2187703923   -0.3707636260
     C    -0.3236827874   17.0247923505   -0.2069901507
     C     2.6239290747   16.7959139555   -0.6337679563
     C     2.4499070236   17.4453402128   -1.8601847074
     C     3.2955867275   18.4875019436   -2.2307574409
     C     4.3196369002   18.8969945715   -1.3784602817
     C     4.4931152650   18.2557225496   -0.1543095418
     C     3.6524839391   17.2078356460    0.2153365033
     C     4.5600621670    0.6323576677    1.6895175233
     H     7.6118866637    1.8800905851    2.8129262804
     H     7.1650795524    1.4796214253    1.1444420363
     H     7.1907721798    0.2103711010    2.3796970836
     H     5.3144628247    1.2912286673    3.5799314314
     H     5.5634191684    3.0693285077    0.2355319520
     H     4.9694921333    5.4172490785   -0.0456202286
     H     3.9929678353    5.6706168455    4.1351909639
     H     4.5955107690    3.2983012918    4.4107837258
     H     3.7187655534    7.5896180950    2.8633551617
     H     4.3466370916    7.4502825709   -0.1359743854
     H     3.8468345352    9.2948943509   -1.4456297150
     H     3.1762368645   11.6308098804   -1.7606884851
     H     3.3590282722    9.6871869174    2.8089273840
     H     2.6487255869   11.7661747786    3.7775162517
     H     1.9602178327   14.1483645262    3.5475127533
     H     5.2828539382   13.6887636328   -1.9163886412
     H     7.6054171105   14.2942142407   -2.5186918101
     H     8.0957988271   15.3011388050   -4.7388364368
     H     6.2395946010   15.6985605012   -6.3447197146
     H     3.9229169939   15.0950645906   -5.7384090013
     H     0.4454711586   14.7691749094   -3.7252191995
     H    -1.1623647664   13.9468376126   -5.4187879048
     H    -0.4373429537   12.2845691498   -7.1200481837
     H     1.9062784028   11.4556824181   -7.1090688064
     H     3.5078651787   12.2814891383   -5.4172270722
     H    -0.0821482561   13.8478862127   -1.3808165206
     H    -2.5073805307   14.1912000653   -1.6760232411
     H    -3.5514656321   16.3537818462   -1.0347297801
     H    -2.1388018263   18.1663013974   -0.0829466310
     H     0.2884316405   17.8198286298    0.2103668380
     H     1.6470390082   17.1382733514   -2.5250477208
     H     3.1492385004   18.9840342393   -3.1864200813
     H     4.9760589124   19.7140444742   -1.6659731547
     H     5.2861464059   18.5698830960    0.5193295049
     H     3.7886291591   16.7105138943    1.1700280694
     H     4.6972477160    0.8142037163    0.6169336988
     H     3.5054878755    0.8063003579    1.9293038465
     H     4.7863079115   -0.4229759262    1.8811516624
