88
-2.0133685180467228e+03 frame 38   xyz file generated by TeraChem
     C     7.0602182722    3.3296010737    2.1032752957
     C     5.8983157701    2.7873377323    2.9608717001
     C     5.6775484472    3.7175831292    4.1701112859
     C     4.6310296420    2.7561237867    2.1115259084
     C     4.1495314988    3.9458876837    1.5675205440
     C     2.9977779123    4.0248035556    0.7773325497
     C     2.3137890317    2.8281363849    0.5296285736
     C     2.7629465623    1.6289044817    1.0537352908
     C     3.9175160915    1.5701322151    1.8546039988
     N     4.3417830389    0.3499018827    2.3782738077
     C     5.4924011556    0.2518798970    3.1685840184
     C     6.2609605648    1.3930536818    3.4632130698
     C     7.4032560465    1.2293165694    4.2521472427
     C     7.7982851305   -0.0060630105    4.7523134126
     C     7.0253172499   -1.1253713536    4.4577468530
     C     5.8863972995   -0.9989499130    3.6754450307
     C     3.5675243413   -0.8247962394    2.1227134800
     C     3.8592016295   -1.6238949181    1.0170306450
     C     3.1003032752   -2.7654649531    0.7693089589
     C     2.0523727085   -3.1069178636    1.6229061702
     C     1.7631302148   -2.3064403232    2.7270703828
     C     2.5204307935   -1.1649919476    2.9794306177
     C     2.5237295233    5.3144073104    0.2385162320
     C     3.4218376064    6.3344662262   -0.1141779979
     C     2.9713743432    7.5532686592   -0.5987422455
     C     1.6009751171    7.8044610428   -0.7563853348
     C     0.6989160702    6.7828683474   -0.4298263804
     C     1.1549590206    5.5667818076    0.0617372093
     C     1.1915239625    9.1023186875   -1.3052368390
     N     1.8986177136    9.7648488878   -2.1991047440
     C     1.2083036724   10.9162041292   -2.4751486998
     C     0.0390907826   10.9566269471   -1.7332390525
     N     0.0471135716    9.7904856451   -0.9804814982
     C    -0.9399876245    9.4193227216   -0.0192428234
     C    -2.2415834150    9.1435618632   -0.4356436582
     C    -3.2011265709    8.7902895102    0.5091311419
     C    -2.8598234157    8.7047340994    1.8580028706
     C    -1.5552447431    8.9798307979    2.2647573389
     C    -0.5918645184    9.3448933349    1.3286237663
     C    -1.0553269891   11.9382369111   -1.6875278564
     C    -1.7184758082   12.2934465797   -2.8703551957
     C    -2.7477197660   13.2296564395   -2.8508686799
     C    -3.1349044433   13.8201438537   -1.6488752780
     C    -2.4827735971   13.4727370937   -0.4670639211
     C    -1.4481854788   12.5416094693   -0.4848028715
     C     1.7496261694   11.8933252462   -3.4303296418
     C     2.5745759805   11.4467511532   -4.4728363182
     C     3.1171242076   12.3449158925   -5.3860303815
     C     2.8494008101   13.7085487315   -5.2740340346
     C     2.0412603357   14.1650357119   -4.2339021540
     C     1.4997556319   13.2684563643   -3.3175678764
     H     6.8356720503    4.3357187931    1.7332611178
     H     7.2389645506    2.6785733203    1.2412398347
     H     7.9841841914    3.3889787720    2.6880884484
     H     5.4464133612    4.7368444902    3.8431043212
     H     6.5758109053    3.7637616310    4.7946902235
     H     4.8481708744    3.3588240722    4.7887710228
     H     4.6844836852    4.8652281330    1.7902739096
     H     1.4302560620    2.8244937405   -0.1030355607
     H     2.2173218469    0.7183536738    0.8337087246
     H     8.0056684234    2.1041376338    4.4826684988
     H     8.6930469132   -0.0900193324    5.3624108114
     H     7.3043973084   -2.1058530624    4.8348313417
     H     5.2930557120   -1.8785110378    3.4524055146
     H     4.6778046162   -1.3437328647    0.3597295776
     H     3.3275679543   -3.3875694257   -0.0920791008
     H     1.4605940329   -3.9970802883    1.4274892355
     H     0.9468490948   -2.5703542574    3.3939354428
     H     2.3076805470   -0.5314255382    3.8361794798
     H     4.4914278308    6.1657280270   -0.0219468904
     H     3.6824809848    8.3287659969   -0.8672825442
     H    -0.3677533111    6.9308197282   -0.5643159313
     H     0.4290098146    4.8037799849    0.3296926019
     H    -2.4930094885    9.2049180415   -1.4902967186
     H    -4.2166953028    8.5765362762    0.1879196271
     H    -3.6106059757    8.4250592151    2.5918285335
     H    -1.2858732266    8.9174923068    3.3153633750
     H     0.4258745218    9.5716130698    1.6326240989
     H    -1.4224397089   11.8269188022   -3.8059781574
     H    -3.2529987371   13.4931035030   -3.7763346784
     H    -3.9414584736   14.5483955727   -1.6331932307
     H    -2.7755923190   13.9325241342    0.4731645662
     H    -0.9368429422   12.2836541628    0.4384823315
     H     2.7831661750   10.3841973623   -4.5578621735
     H     3.7499565165   11.9776678509   -6.1901029992
     H     3.2719357674   14.4108015313   -5.9878751899
     H     1.8386657204   15.2277526167   -4.1273738234
     H     0.8898871778   13.6397575910   -2.4995289744
