19
-6.0582438879512472e+02 frame 27   xyz file generated by TeraChem
     N     1.4143100485    0.4558285726    0.8579802394
     C     2.4881752185    0.2680348391    0.2072991693
     C     2.9326732678   -1.1461602212   -0.0958782122
     O     2.3799999783   -2.1061173415    0.3779055639
     O     3.9839120297   -1.3304380684   -0.9165213020
     C     4.6214769212   -0.2818108628   -1.5507870202
     C     4.3445861465    1.0609361510   -1.2754876794
     C     3.3356725308    1.4105247361   -0.2573464765
     N     3.1262194625    2.5554992626    0.2664075001
     C     5.0593563408    2.0310439428   -1.9920639827
     C     6.0154323377    1.6733605695   -2.9298619826
     C     6.2800518269    0.3234919204   -3.1707003984
     C     5.5823180553   -0.6591811036   -2.4811908993
     H     1.0085032656   -0.4593354695    1.0894205975
     H     3.7693672904    3.2539856768   -0.1142938479
     H     4.8492915530    3.0835919137   -1.8209092290
     H     6.5520257823    2.4426535242   -3.4763142424
     H     7.0288241666    0.0346480772   -3.9023959400
     H     5.7641142155   -1.7155961290   -2.6507520224
