86
-2.0122037698472504e+03 frame 89   xyz file generated by TeraChem
     C     2.2890160207    3.2092026703    5.1943969469
     C     2.2279935104    2.1028048971    4.1219282115
     C     0.7537728316    1.7570121931    3.8262980274
     C     2.8844431696    2.6108948876    2.8429368109
     C     2.3530084430    3.7354351994    2.2142673506
     C     2.8791724094    4.2843674149    1.0407172306
     C     4.0054840675    3.6573295092    0.4948382462
     C     4.5609776771    2.5396466462    1.0948144835
     C     4.0131473860    1.9956753629    2.2703549401
     N     4.5854936859    0.8647447237    2.8539262195
     C     4.0568487899    0.2932827022    4.0177393293
     C     2.9337982630    0.8586139132    4.6493758208
     C     2.4528580501    0.2470220555    5.8102675026
     C     3.0390808221   -0.8890968699    6.3556046261
     C     4.1489097776   -1.4392271923    5.7208404226
     C     4.6525718944   -0.8560790680    4.5665977475
     C     5.7085529726    0.2456555923    2.2202067657
     C     7.0039238986    0.6274828982    2.5685193479
     C     8.0936904619    0.0215729472    1.9470316729
     C     7.8896021709   -0.9620084746    0.9805686931
     C     6.5935017711   -1.3413883860    0.6343010126
     C     5.5014436811   -0.7385232517    1.2536343653
     C     2.2638715152    5.4687101975    0.4040199149
     C     3.0427860451    6.4157979440   -0.2748985639
     C     2.4508867939    7.5314365562   -0.8602693420
     C     1.0771799664    7.7242552824   -0.7836218528
     C     0.2744884196    6.7868738431   -0.1173882712
     C     0.8791982503    5.6715873107    0.4711593366
     C    -1.1671821138    7.0627513525   -0.0314542869
     N    -1.6491746952    8.2884782822    0.0329626357
     C    -3.0055635643    8.1461909457    0.0993225337
     C    -3.3721677122    6.8092460814    0.0669035555
     N    -2.1734364917    6.1154942436   -0.0101378572
     C    -2.0019677356    4.7016351620   -0.1176300564
     C    -1.6902525385    4.1400832790   -1.3531474685
     C    -1.5117975976    2.7619240253   -1.4509728509
     C    -1.6494979746    1.9554743348   -0.3231523502
     C    -1.9654838601    2.5261140372    0.9098966256
     C    -2.1388764397    3.9029021126    1.0180625491
     C    -4.7432559525    6.3818718203    0.0807092709
     C    -5.1607096816    5.0384777928   -0.0280558507
     C    -6.4993553510    4.7012225722   -0.0012509503
     C    -7.4685311216    5.7020298788    0.1340460334
     C    -7.0822888153    7.0252871972    0.2261689265
     C    -5.7275538050    7.4136911827    0.1974528536
     C    -5.3437071069    8.8254255420    0.2700336429
     C    -3.9748020034    9.1949967205    0.2069178806
     C    -3.5932877479   10.5479128602    0.2575614250
     C    -4.5454044928   11.5399311258    0.3754333844
     C    -5.9029584430   11.1919767216    0.4446448345
     C    -6.2895470491    9.8657440155    0.3925141435
     H     1.7714585796    4.1130891416    4.8556770362
     H     3.3277821431    3.4733246439    5.4195923999
     H     1.8100944144    2.8803054979    6.1227731069
     H     0.2131329779    2.6324817804    3.4516631633
     H     0.2434992847    1.4129876547    4.7319047309
     H     0.6866662675    0.9655287265    3.0723020163
     H     1.4970299011    4.2208273984    2.6745994352
     H     4.4429779008    4.0288716757   -0.4279953864
     H     5.4262365302    2.0703239089    0.6409001854
     H     1.5862851857    0.6783710938    6.3043894724
     H     2.6347050362   -1.3343894199    7.2600296832
     H     4.6309587711   -2.3275131603    6.1207874482
     H     5.5179639749   -1.2931159181    4.0815311256
     H     7.1475930591    1.3956700541    3.3233890905
     H     9.1029473352    0.3190381218    2.2184278943
     H     8.7410025986   -1.4331064613    0.4967893329
     H     6.4313924004   -2.1077680564   -0.1187181581
     H     4.4853354882   -1.0237795285    0.9948886972
     H     4.1214134906    6.2925162305   -0.3223984934
     H     3.0691742456    8.2612493356   -1.3761103044
     H     0.6123659863    8.5946485957   -1.2355725804
     H     0.2704005780    4.9419878904    0.9921996650
     H    -1.5905201343    4.7813264521   -2.2240650893
     H    -1.2663844166    2.3197621949   -2.4123658863
     H    -1.5105340495    0.8810011493   -0.4034556171
     H    -2.0726861606    1.8996960080    1.7909031096
     H    -2.3796238593    4.3644581587    1.9716616960
     H    -4.4231373615    4.2539877361   -0.1402487498
     H    -6.7939023165    3.6589303082   -0.0877154936
     H    -8.5237937187    5.4446434323    0.1595009500
     H    -7.8555790114    7.7798257687    0.3185486703
     H    -2.5357230689   10.7896146153    0.2052534543
     H    -4.2465541196   12.5839319970    0.4160836071
     H    -6.6586526837   11.9670375306    0.5398746960
     H    -7.3486319556    9.6385421779    0.4487705787
