37
-1.0811469556551967e+03 frame 68   xyz file generated by TeraChem
     C     5.4711865327   -1.2341362772   -2.2324381832
     C     5.3637755902   -1.4107021711   -0.7252232990
     N     4.0446689567   -1.8688040852   -0.3104565839
     C     2.9007115382   -1.0603401119   -0.1347581420
     C     2.7865185731    0.3134024200   -0.2753681448
     C     1.5335770309    0.8782334724   -0.0290313294
     C     0.4416161338    0.0883099156    0.3439228922
     C     0.5680591799   -1.2927537141    0.4832113912
     C     1.8095007443   -1.8730385385    0.2403850052
     C     2.3267586150   -3.2231063650    0.2852831239
     N     1.7191705460   -4.3683520626    0.5195198425
     N     2.4464696801   -5.4463917670    0.5104469815
     B     4.0168336925   -5.4879969372    0.2989867968
     O     4.4996540092   -4.1442755924   -0.1586630535
     C     3.7043248755   -3.1380294796   -0.0626530563
     F     4.3212540608   -6.4116375611   -0.6735004859
     F     4.6377968228   -5.7797409139    1.5013544217
     C     1.7246629013   -6.6601968442    0.6579586202
     C     0.3986778497   -6.7491549754    0.2216875354
     C    -0.2987078158   -7.9420108744    0.3709376199
     C     0.3179532543   -9.0550580683    0.9413553379
     C     1.6408111062   -8.9625725070    1.3687964903
     C     2.3473614891   -7.7718875573    1.2346691061
     H     6.4749144478   -0.8790801375   -2.4860969789
     H     4.7451898556   -0.5029532610   -2.6012601532
     H     5.3015740937   -2.1851628698   -2.7465524433
     H     5.5605835322   -0.4728240438   -0.1977934274
     H     6.0835832392   -2.1502337420   -0.3657569976
     H     3.6308841389    0.9304062047   -0.5672165539
     H     1.4091938088    1.9524173554   -0.1311794142
     H    -0.5202772064    0.5582686119    0.5279231127
     H    -0.2796788626   -1.9054141999    0.7757210248
     H    -0.0704193711   -5.8858500362   -0.2384602768
     H    -1.3271291326   -8.0044621677    0.0255511946
     H    -0.2281096162   -9.9880612671    1.0489374099
     H     2.1296347832   -9.8211276912    1.8211383227
     H     3.3669350567   -7.6980864868    1.5946579348
