115
-2.1030940821889635e+03 frame 112   xyz file generated by TeraChem
     C     2.7332435441   -0.6828983371    1.6640272178
     C     2.4913742584   -0.0911090398    0.2813835760
     C     3.0395106766   -0.9239248045   -0.9003690212
     C     2.6736084570   -0.2026429156   -2.2185722650
     C     3.1357965444   -0.8986106823   -3.4925731198
     C     4.5370249820   -1.1504675340   -0.7859234001
     C     5.5564544334   -0.2140266216   -0.7478712889
     C     6.9046647034   -0.6217779154   -0.6603689843
     C     7.1735790221   -2.0060244821   -0.5962920816
     C     6.1603158455   -2.9579766477   -0.6057299226
     C     4.8377238805   -2.5228044688   -0.7085210804
     C     3.5836153223   -3.2709582542   -0.7555146775
     C     2.5226898511   -2.3526308828   -0.8712156923
     C     1.2165123946   -2.8082300463   -0.9378160883
     C     0.9334713327   -4.1889817587   -0.8607019373
     C     2.0193850643   -5.0823290315   -0.7382390261
     C     3.3374640305   -4.6439918963   -0.6992825158
     B    -0.5389359313   -4.7176096988   -0.8934947308
     C    -0.8565359736   -6.1461678037   -0.2874867995
     C    -0.5622565549   -6.4467833959    1.0627712683
     C     0.0765098577   -5.4488023040    1.9995107802
     C    -0.8770233868   -7.7046253166    1.5873651361
     C    -1.4477271493   -8.7076077463    0.8089236872
     C    -1.7173611812   -8.4147610939   -0.5297861617
     C    -1.4462517951   -7.1631531689   -1.0808027415
     C    -1.7646660685   -6.9477506413   -2.5388850666
     C    -1.7651122574  -10.0608202995    1.3819433748
     C    -1.6724476254   -3.8116804228   -1.5271233535
     C    -1.5838018800   -3.3639399804   -2.8654913350
     C    -0.4199492870   -3.7007669968   -3.7668361904
     C    -2.6057046089   -2.5821180030   -3.4151359805
     C    -3.7170345870   -2.1921280314   -2.6736770459
     C    -3.7924764192   -2.6188291509   -1.3462190437
     C    -2.8078976741   -3.4214891460   -0.7715365494
     C    -2.9696964092   -3.8062335517    0.6771369841
     C    -4.8083175920   -1.3522667574   -3.2769970725
     B     8.0637866693    0.4301445584   -0.6338755379
     C     7.7409082899    1.9077254509   -0.1653352233
     C     7.1791685183    2.1562951765    1.1085006071
     C     6.8736328605    1.0543292772    2.0948969573
     C     6.9046750549    3.4664172429    1.5136409166
     C     7.1397667618    4.5594892969    0.6846760386
     C     7.6848794838    4.3110986372   -0.5769042962
     C     7.9960977866    3.0216291253   -1.0064675712
     C     8.5617862730    2.8570405638   -2.3940079855
     C     6.8164077747    5.9601256764    1.1247796213
     C     9.5181347544   -0.0128825231   -1.0748692644
     C     9.7539865415   -0.5665868659   -2.3566604129
     C     8.6510280800   -0.7583028298   -3.3707526251
     C    11.0460632395   -0.9423255480   -2.7329203350
     C    12.1324206635   -0.8176012476   -1.8691056646
     C    11.8934243545   -0.2905086837   -0.5998508970
     C    10.6226407368    0.1231934246   -0.1974925340
     C    10.4710890983    0.6732442937    1.1987469131
     C    13.5191480711   -1.2080203573   -2.2983881115
     H     2.3289464492   -0.0222683063    2.4386441098
     H     3.8032332353   -0.8134839882    1.8615427137
     H     2.2491053552   -1.6595307440    1.7704952795
     H     2.9412452010    0.9091587273    0.2240476784
     H     1.4132058401    0.0466793896    0.1233333505
     H     3.0995241682    0.8088909488   -2.1757495269
     H     1.5828212595   -0.0768759791   -2.2405303345
     H     4.2257621146   -1.0065202288   -3.5151368260
     H     2.8381000251   -0.3208588377   -4.3742271932
     H     2.6967009697   -1.8983385763   -3.5822379069
     H     5.3268527096    0.8490529903   -0.7947595497
     H     8.2084417661   -2.3344659259   -0.5292323710
     H     6.3956676839   -4.0177601059   -0.5418493746
     H     0.3912610271   -2.1050350854   -1.0376181382
     H     1.8120209194   -6.1482528343   -0.6762849020
     H     4.1564179396   -5.3544376854   -0.6145312227
     H    -0.1751920377   -4.4130690189    1.7564908314
     H     1.1706026121   -5.5238494310    1.9691915430
     H    -0.2344452749   -5.6381733595    3.0324096033
     H    -0.6671645102   -7.9037002132    2.6376637938
     H    -2.1610947120   -9.1826434373   -1.1623372419
     H    -2.2208541276   -7.8429897265   -2.9726980837
     H    -0.8621590127   -6.7249902335   -3.1207096701
     H    -2.4536953784   -6.1095173152   -2.6853911812
     H    -1.5919797107  -10.0868520460    2.4620656630
     H    -1.1445962154  -10.8406935256    0.9232647638
     H    -2.8103186093  -10.3354233325    1.1975719602
     H     0.0705702983   -4.6408731398   -3.5021149060
     H     0.3490591962   -2.9191533654   -3.7224904736
     H    -0.7494772319   -3.7736472092   -4.8087740504
     H    -2.5262588644   -2.2693863495   -4.4556578943
     H    -4.6482487189   -2.3228826614   -0.7408110292
     H    -3.9369051921   -3.4688623876    1.0621443704
     H    -2.1919330601   -3.3498808450    1.3019652102
     H    -2.9010411391   -4.8888507933    0.8232807485
     H    -4.5382665138   -1.0065874000   -4.2795577925
     H    -5.0203875115   -0.4727612711   -2.6581226226
     H    -5.7445468102   -1.9184671078   -3.3591144956
     H     7.4789720410    0.1596321407    1.9317598740
     H     5.8231564866    0.7443734745    2.0268602643
     H     7.0451996497    1.3977854784    3.1207884537
     H     6.4962592344    3.6338793252    2.5095965703
     H     7.8807453379    5.1499786865   -1.2435411300
     H     8.7896079771    3.8302662282   -2.8398984806
     H     7.8503681541    2.3518023387   -3.0593307274
     H     9.4782800581    2.2588678943   -2.3932567140
     H     6.5700564090    5.9958234173    2.1903688420
     H     5.9578459374    6.3603795080    0.5707350634
     H     7.6572384323    6.6396378441    0.9443393718
     H     7.9007915983    0.0367874942   -3.3323138974
     H     8.1201054682   -1.7035506905   -3.2061572047
     H     9.0621569218   -0.7841749356   -4.3852449404
     H    11.2064635271   -1.3464923010   -3.7317343518
     H    12.7241660162   -0.1925879498    0.0977873452
     H    11.4376035671    0.6950964777    1.7116918598
     H     9.7922590349    0.0617238741    1.8052402199
     H    10.0665855384    1.6908357167    1.1943810361
     H    13.4945912736   -1.9481117465   -3.1046228298
     H    14.0932842961   -1.6248340369   -1.4641622605
     H    14.0750853754   -0.3373125077   -2.6699379061
