89
-1.9053617810965798e+03 frame 58   xyz file generated by TeraChem
     C     5.7891598146   -1.2481967946    1.0024902311
     C     6.1313827296   -0.5585331774   -0.3121096177
     C     5.0130894651    0.3390525221   -0.8176735773
     O     4.6547925690    1.3629361074    0.1084767273
     C     5.4624466533    2.4428250169    0.2685379413
     C     6.5250036041    2.7384359273   -0.5819845360
     C     7.2568338575    3.8988386519   -0.3266383266
     C     6.9607069078    4.7476628607    0.7644827961
     C     5.8915573036    4.4306099660    1.5983082232
     C     5.1180206950    3.2910771143    1.3625190728
     C     4.0175343296    2.8866261528    2.2389022120
     C     3.1311772978    3.6613480295    2.9104366319
     C     2.9974354206    5.1295020040    2.7106917172
     C     2.8043886536    5.6677596590    1.4311016655
     C     2.6461487135    7.0388290254    1.2507164465
     C     2.6751182566    7.8990469436    2.3476215323
     C     2.8561926369    7.3756774914    3.6267899533
     C     3.0099371918    6.0033544541    3.8066608046
     C     2.1810585834    3.0265875075    3.8565553769
     C     2.5514129135    1.9118028034    4.6258867071
     C     1.6406153488    1.2919693443    5.4760496949
     C     0.3390655436    1.7783613035    5.5872737013
     C    -0.0400129895    2.8942193326    4.8423399111
     C     0.8708520075    3.5137350688    3.9928559347
     C     7.9431475359    5.8077809991    0.7362538523
     C     8.7682857382    5.5540194858   -0.3886862435
     N     8.3455739271    4.3951264099   -1.0137281223
     C     8.9453079423    3.7746200024   -2.1798320568
     C     8.1963713821    4.0449747949   -3.4841755172
     C     8.1714723042    5.5133424428   -3.8877827921
     C     9.8108159901    6.4189506857   -0.7227686362
     C    10.0214607136    7.5204853406    0.0924314827
     C     9.2409330992    7.7853172833    1.2441966501
     C     8.1846807451    6.9127196869    1.5478939407
     C     9.6073968202    8.9736078846    2.0185005837
     C     9.3468870323    9.3278917807    3.2986537217
     C     8.5312212093    8.4876310654    4.2243301003
     C     9.1514693167    7.4841387073    4.9770255582
     C     8.4103952503    6.6870915991    5.8464093477
     C     7.0379625637    6.8882275962    5.9827901426
     C     6.4119440325    7.8925112831    5.2466307152
     C     7.1534533812    8.6871421210    4.3737359887
     C     9.9231931292   10.5737581518    3.8675042090
     C     9.3072153525   11.2201503418    4.9515455735
     C     9.8319320029   12.3941563306    5.4852049318
     C    10.9956243306   12.9488284012    4.9584688259
     C    11.6328590961   12.3092695032    3.8953872299
     C    11.1091416745   11.1369985426    3.3630233999
     H     6.6080902297   -1.8964467152    1.3310905454
     H     4.8891851249   -1.8663461146    0.9000520609
     H     5.6025743806   -0.5151307482    1.7944753186
     H     6.3242755621   -1.3057432309   -1.0930878196
     H     7.0554606067    0.0220031425   -0.2032399818
     H     4.0927161307   -0.2412283744   -0.9376006802
     H     5.2537613623    0.7788377692   -1.7932459596
     H     6.7765200265    2.0987360997   -1.4191168204
     H     5.6590365923    5.0590018912    2.4529312764
     H     3.9084599365    1.8096435828    2.3532331203
     H     2.7748801545    4.9993398741    0.5748557219
     H     2.4926498806    7.4359373312    0.2504669264
     H     2.5494205551    8.9694282115    2.2071731956
     H     2.8714045354    8.0372953224    4.4894671645
     H     3.1438580757    5.6005104729    4.8077052203
     H     3.5719077614    1.5417601228    4.5700370323
     H     1.9540010299    0.4338557677    6.0654483747
     H    -0.3707426798    1.2980977466    6.2556417699
     H    -1.0517816191    3.2841668971    4.9210484518
     H     0.5611713228    4.3792028016    3.4133573781
     H     9.0005696130    2.6956411326   -1.9936291422
     H     9.9762826692    4.1350811025   -2.2528784698
     H     7.1710139626    3.6634379637   -3.3980395825
     H     8.6839379835    3.4498595472   -4.2670290025
     H     7.6607268547    6.1268374559   -3.1374364983
     H     7.6451114532    5.6460608534   -4.8389432241
     H     9.1877272960    5.9071122888   -4.0086057777
     H    10.4348288786    6.2506000475   -1.5951934531
     H    10.8279114946    8.2068477906   -0.1552233737
     H     7.5452591923    7.0993544534    2.4026614262
     H    10.2282552650    9.6650163663    1.4498388106
     H    10.2217576520    7.3252771688    4.8712535875
     H     8.9068671590    5.9065616578    6.4173188366
     H     6.4588497800    6.2664573877    6.6605024381
     H     5.3422386869    8.0559390029    5.3461118870
     H     6.6595590049    9.4619765030    3.7919839164
     H     8.3994468254   10.8022211142    5.3763319201
     H     9.3266984084   12.8753670504    6.3188756134
     H    11.4092376923   13.8620132164    5.3779650157
     H    12.5546961768   12.7163850594    3.4875594073
     H    11.6457610455   10.6365570499    2.5622193383
