120
-3.9491669396199886e+03 frame 81   xyz file generated by TeraChem
     C     4.4349008414    1.3011596080   -2.5207958249
     C     4.2975898872   -0.0218761434   -3.2610856019
     N     3.9480654672   -1.1226780244   -2.3671616858
     C     3.0544692477   -2.1096651268   -2.8146289063
     C     2.8016950273   -2.3508674911   -4.1713000822
     C     1.8847738613   -3.3181476113   -4.5649814395
     C     1.2084873452   -4.1097642621   -3.6290725157
     C     1.4890743198   -3.8947627207   -2.2726138354
     C     2.3787521078   -2.9061879998   -1.8732304787
     S     2.6329800579   -2.5761660668   -0.1522442300
     C     4.3624157014   -2.2015907805   -0.2294504196
     C     4.8387486457   -1.4728623859   -1.3316905926
     C     6.1972497014   -1.1349888412   -1.3649503356
     C     7.0407727811   -1.4857435640   -0.3134351140
     C     6.5574087743   -2.2081570670    0.7737553845
     C     5.2160269062   -2.5815313580    0.8028559174
     C     0.2432357713   -5.1448774772   -4.0491392370
     C     0.4251064928   -5.8596629099   -5.2440801915
     C    -0.4784479774   -6.8337807847   -5.6397512873
     C    -1.5967518656   -7.1306480272   -4.8500933678
     C    -1.7848556811   -6.4233434281   -3.6559708728
     C    -0.8815138365   -5.4469663421   -3.2647623643
     C    -2.5587486605   -8.1675165177   -5.2688492004
     N    -2.3346545448   -8.7950369068   -6.4284709546
     C    -3.2332310986   -9.7263279724   -6.7658804508
     N    -4.3001755612  -10.0476676941   -6.0265884164
     C    -4.4412250851   -9.3654387451   -4.8849989736
     N    -3.5976958768   -8.4168682561   -4.4642836987
     C    -5.6053068493   -9.6790092450   -4.0354086517
     C    -6.5235107410  -10.6643287352   -4.4198717449
     C    -7.6197923630  -10.9560946031   -3.6232345430
     C    -7.8376030368  -10.2778647532   -2.4130701675
     C    -6.9113547400   -9.2929207976   -2.0340392803
     C    -5.8153390029   -8.9967362002   -2.8303981047
     C    -9.0079862383  -10.5909119615   -1.5694127985
     C    -9.5400406824  -11.8846953907   -1.5110616187
     C   -10.6505857044  -12.1797397169   -0.7300279746
     C   -11.2570119011  -11.1938214875    0.0592855276
     C   -10.7246682751   -9.8935695055    0.0016994875
     C    -9.6363756461   -9.5958143929   -0.8079431897
     S   -11.4327978804   -8.6469785809    1.0410356629
     C   -13.1268413845   -9.1435889471    0.8968249059
     C   -13.4198522587  -10.5169657851    0.8655655166
     N   -12.3634991124  -11.4507560519    0.8853715354
     C   -12.6397180670  -12.8254570065    1.2945576388
     C   -13.1504695191  -12.9111754903    2.7261867496
     C   -14.7634818820  -10.9052778981    0.7973995310
     C   -15.7782484141   -9.9512770224    0.7991192505
     C   -15.4755582077   -8.5929588185    0.8322576143
     C   -14.1423641030   -8.1917830540    0.8616101085
     C    -3.0372542663  -10.4447150413   -8.0393658660
     C    -1.9477441941  -10.1466971794   -8.8677399492
     C    -1.7715686400  -10.8159195217  -10.0691513168
     C    -2.6740330499  -11.8080522435  -10.4851716276
     C    -3.7598297060  -12.1050733734   -9.6458072652
     C    -3.9406844734  -11.4348690247   -8.4456533895
     C    -2.4922822050  -12.5115478676  -11.7705088151
     C    -1.2183076807  -12.7826318092  -12.2840049138
     C    -1.0483531601  -13.4328852222  -13.5004450034
     C    -2.1530594578  -13.8738514661  -14.2404927808
     C    -3.4334646721  -13.5988833371  -13.7283071665
     C    -3.5986165106  -12.9184322929  -12.5291704459
     S    -4.8430486065  -14.2050290271  -14.6120743914
     C    -4.2371684425  -13.9344170053  -16.2543062410
     C    -2.8784350082  -14.1794907065  -16.5143151005
     N    -2.0302952906  -14.5647724476  -15.4566658221
     C    -0.7789479535  -15.2521169959  -15.7649274042
     C    -1.0113201361  -16.5811368356  -16.4702473019
     C    -2.4151979192  -14.0121505181  -17.8250127131
     C    -3.2904367701  -13.6476011931  -18.8453260835
     C    -4.6350048109  -13.4081707569  -18.5755729323
     C    -5.1018469041  -13.5349470722  -17.2698072819
     H     4.6491854742    2.0984970939   -3.2399505601
     H     5.2425372874    1.2849387205   -1.7839469936
     H     3.5020052590    1.5430221860   -2.0019204818
     H     5.2040442638   -0.2455765873   -3.8428769724
     H     3.4796979568    0.0718186191   -3.9782269014
     H     3.3230930770   -1.7815938265   -4.9336288824
     H     1.6911591880   -3.4504644632   -5.6256876325
     H     1.0158101364   -4.5107302270   -1.5128761714
     H     6.6029721537   -0.5953244643   -2.2143673984
     H     8.0880957572   -1.1995788028   -0.3574250143
     H     7.2167531793   -2.4865399460    1.5906390573
     H     4.8197313905   -3.1572319432    1.6350495941
     H     1.3000356196   -5.6650897855   -5.8579182772
     H    -0.3214917315   -7.3839755997   -6.5616230936
     H    -2.6536118648   -6.6417112553   -3.0439062237
     H    -1.0615637798   -4.8924762530   -2.3480007093
     H    -6.3736082533  -11.1910521073   -5.3564570498
     H    -8.3333773135  -11.7043217055   -3.9564031015
     H    -7.0387663884   -8.7686384351   -1.0910098385
     H    -5.1037601277   -8.2381563955   -2.5210758822
     H    -9.0784160052  -12.6856597344   -2.0815427292
     H   -11.0450772846  -13.1902887930   -0.7412089180
     H    -9.2813768547   -8.5698219040   -0.8498879948
     H   -11.6924504073  -13.3651753982    1.2377252464
     H   -13.3297632857  -13.3243650636    0.5979157647
     H   -12.4162236070  -12.4854013669    3.4174366646
     H   -13.3082097702  -13.9614297124    2.9923821820
     H   -14.0970560561  -12.3817230589    2.8627819301
     H   -15.0223872985  -11.9575198113    0.7429931331
     H   -16.8133094046  -10.2795329263    0.7600163146
     H   -16.2669129109   -7.8491535332    0.8275868194
     H   -13.8826655139   -7.1365737015    0.8727538050
     H    -1.2480468958   -9.3750393123   -8.5642573817
     H    -0.9358103005  -10.5474983302  -10.7092118708
     H    -4.4592124059  -12.8867802807   -9.9288056030
     H    -4.7822482207  -11.6770479261   -7.8050533751
     H    -0.3352806503  -12.4878939006  -11.7240385283
     H    -0.0423205492  -13.5962434189  -13.8722953611
     H    -4.6061976019  -12.6966162848  -12.1881889351
     H    -0.2867473323  -15.4527764563  -14.8112083032
     H    -0.0976529957  -14.6113758575  -16.3439317225
     H    -1.6302192738  -17.2365347157  -15.8493128415
     H    -0.0490892453  -17.0741842811  -16.6431966415
     H    -1.5060668851  -16.4579857231  -17.4373648585
     H    -1.3663840035  -14.1691099440  -18.0548748479
     H    -2.9080887441  -13.5387419978  -19.8565698707
     H    -5.3158112523  -13.1182883970  -19.3705391921
     H    -6.1444019691  -13.3394932459  -17.0333012571
