28
-7.4067835194422219e+02 frame 26   xyz file generated by TeraChem
     O     1.6137248238    2.0240652484    0.3606780119
     C     1.2481325779    0.8540424296    0.2927333027
     N     2.1262256739   -0.1867884176    0.4334996083
     C     1.8041662709   -1.5268044744   -0.0310676838
     N     0.4801604166   -1.8489683205    0.4715975453
     C    -0.5131586563   -0.9147267071    0.2266148310
     C    -0.1625177479    0.4451926089    0.1189828365
     C    -1.1517979085    1.4099726218   -0.0816779437
     C    -2.4859259084    1.0448106637   -0.1831771951
     C    -2.8318781786   -0.3059716895   -0.0680937012
     C    -1.8638630477   -1.2793098624    0.1364419569
     C     2.8207908310   -2.5232076933    0.4854241127
     C     3.0032664404   -2.7009418679    1.8569113558
     C     3.9475999317   -3.6269685785    2.2836090721
     C     4.6687034236   -4.3360682863    1.3263323142
     C     4.4096243989   -4.0849656688   -0.0173362483
     N     3.5047289620   -3.1973801425   -0.4419605438
     H     3.1037542927    0.0782566234    0.4141673807
     H     1.8348477598   -1.5695490892   -1.1336061124
     H     0.2094181421   -2.8058096483    0.2764011907
     H    -0.8440077597    2.4494361934   -0.1506156961
     H    -3.2529223663    1.7962035780   -0.3442290517
     H    -3.8741303467   -0.6052116682   -0.1450215139
     H    -2.1412447559   -2.3272160458    0.2217726864
     H     2.4116552929   -2.1220471097    2.5592103812
     H     4.1184681971   -3.7932071492    3.3436736339
     H     5.4167044457   -5.0694629076    1.6117463615
     H     4.9534541795   -4.6214738355   -0.7927605220
