45
-1.4023887969507000e+03 frame 113   xyz file generated by TeraChem
     C     5.9079945506   -0.0958873796   -1.7260201297
     C     4.6791534407    0.7086455769   -1.3613514907
     O     4.8792296027    1.4478116120   -0.1437252453
     C     4.6606266720    0.7886142838    1.0038136458
     O     4.2808107436   -0.3683716209    1.0473756294
     C     4.9339033628    1.6330637307    2.1712369539
     C     4.6462053759    1.3061929354    3.4809824534
     N     5.1638150324    2.2809556006    4.3223940968
     C     5.7755047615    3.2909157956    3.6251028563
     O     6.3007490599    4.2983760039    4.0998501143
     C     5.6628176836    2.8937998635    2.2076174515
     N     6.1787680781    3.5460344132    1.2028429868
     N     6.8204581338    4.6651773667    1.4477879932
     C     7.4229904135    5.3620848198    0.4111649095
     C     7.3981918606    4.9200040255   -0.9043640495
     C     8.0382777318    5.6787780868   -1.8794359705
     C     8.7023949555    6.8652463236   -1.5828841279
     C     8.7217283992    7.3033306534   -0.2669214738
     C     8.0885930944    6.5660332265    0.7324468668
     O     8.0630289360    6.9257321257    2.0289086902
     N     8.0152874122    5.2077670810   -3.2492522774
     O     7.4174936890    4.1667839726   -3.4930227569
     O     8.5956524636    5.8722497331   -4.0991777735
     C     3.9416560048    0.1798163992    4.0990907219
     C     4.4417062255   -0.3651695459    5.2917511986
     C     3.7771974363   -1.4123324461    5.9212035450
     C     2.5972479359   -1.9158622675    5.3781839387
     C     2.0861455256   -1.3686260289    4.2009828464
     C     2.7517364087   -0.3298368003    3.5620118198
     H     5.7552274779   -0.5820618210   -2.6955096155
     H     6.1017476948   -0.8709301118   -0.9788781399
     H     6.7868333119    0.5524275457   -1.8011474207
     H     3.7998775297    0.0695685878   -1.2478381671
     H     4.4706638376    1.4771720184   -2.1090651626
     H     4.9925773083    2.3201078983    5.3186792997
     H     6.8997114731    5.0064482354    2.4102675340
     H     6.8905377490    3.9986759418   -1.1595174373
     H     9.1915029682    7.4294218986   -2.3673974912
     H     9.2308924179    8.2264961424   -0.0030176421
     H     8.5424398145    7.7595139253    2.1596405088
     H     5.3698010039    0.0136790820    5.7121901266
     H     4.1835235425   -1.8346734349    6.8359756386
     H     2.0748755954   -2.7310831911    5.8714405451
     H     1.1604787383   -1.7513762670    3.7801440253
     H     2.3499987816    0.0955257293    2.6495529783
