51
-1.5558579040656982e+03 frame 76   xyz file generated by TeraChem
     C     5.5690917893   -1.5192797018    0.8028268993
     C     5.1761078093   -1.2033792732   -0.6241581253
     O     5.5285551639    0.1466228086   -0.9765860570
     C     4.6574320771    1.1017525729   -0.6213363855
     O     3.6078953885    0.8696531584   -0.0467220918
     C     5.1169566565    2.4361830288   -1.0165363802
     C     4.5045775211    3.6233963445   -0.6642640516
     N     5.1180058145    4.6736923464   -1.3317049106
     C     6.1625389313    4.2484190839   -2.1101040383
     O     6.9043037251    4.9529684591   -2.7927735120
     C     6.1886115278    2.7774304197   -1.9403298239
     N     7.0104769455    1.9654890327   -2.5435046326
     N     7.9096159177    2.4852184233   -3.3547232577
     C     8.7960823541    1.6743016765   -4.0289392633
     C     8.7957433855    0.2806901316   -3.9105947933
     C     9.7131587389   -0.4805746188   -4.6153889504
     C    10.6299199491    0.1647135670   -5.4405608476
     C    10.6525005058    1.5533487090   -5.5794058793
     C     9.7368169593    2.3102645207   -4.8719678654
     O     9.6659426140    3.6598852506   -4.9248334909
     N    11.5909196280   -0.6203737236   -6.1794517608
     O    11.5747908553   -1.8384064774   -6.0410245934
     O    12.3795515031   -0.0316076865   -6.9114998740
     C     3.3944373921    3.9446320407    0.2342253181
     C     3.2505430496    3.3010704593    1.4948156713
     C     2.2322648681    3.6525851396    2.3402491666
     C     1.2921063833    4.6550265902    1.9841612712
     C     1.4343012229    5.3110809920    0.7247087458
     C     2.5027553965    4.9407996204   -0.1247701295
     C     0.5028880608    6.3165400279    0.3594437289
     C    -0.5242279998    6.6569731120    1.2067436886
     C    -0.6649260901    6.0066966423    2.4547571842
     C     0.2235651572    5.0279515074    2.8352200252
     H     5.3598596084   -2.5727483761    1.0172880813
     H     5.0008735013   -0.9049813045    1.5072535887
     H     6.6378531240   -1.3419619971    0.9595085480
     H     4.1043491952   -1.3441684317   -0.7851259177
     H     5.7294642474   -1.8199420127   -1.3360458511
     H     4.9201645149    5.6500626351   -1.1550772472
     H     7.9459177746    3.5008091276   -3.4866547882
     H     8.0668431511   -0.1889054206   -3.2602185305
     H     9.7226992461   -1.5605158288   -4.5327426362
     H    11.3792524752    2.0274521943   -6.2307095781
     H    10.3523530195    4.0070651306   -5.5154694759
     H     3.9620602009    2.5375337703    1.7852126767
     H     2.1349111422    3.1645546019    3.3069954239
     H     2.5907553770    5.4380829426   -1.0883348942
     H     0.6164363239    6.8120272238   -0.6019377288
     H    -1.2336498503    7.4284994757    0.9202967458
     H    -1.4823451934    6.2846785269    3.1146092399
     H     0.1182949651    4.5262305665    3.7942612892
