45
-1.4023889697884633e+03 frame 70   xyz file generated by TeraChem
     C     5.1262363277   -1.5728826350   -0.0548710977
     C     4.4960923098   -0.3972000810   -0.7701619020
     O     4.9661494900    0.8536327133   -0.2370136995
     C     4.3191299793    1.3229642751    0.8396103905
     O     3.3807597045    0.7433925070    1.3584087942
     C     4.8629931194    2.6066813277    1.2910744242
     C     4.4755571859    3.2728705296    2.4370448933
     N     5.0754237243    4.5228455950    2.4697859510
     C     5.8989092323    4.7257416029    1.3930300799
     O     6.5824919164    5.7233979807    1.1696481561
     C     5.7780744119    3.4907874817    0.5843089763
     N     6.3731571398    3.2767716882   -0.5551301145
     N     7.1609834531    4.2217710712   -1.0276853092
     C     7.8081221887    4.0571232176   -2.2326865326
     C     7.6745081559    2.9080333300   -3.0188574192
     C     8.3513204638    2.8014055958   -4.2225606505
     C     9.1635359728    3.8548505004   -4.6322392900
     C     9.3154133291    5.0136028289   -3.8687467999
     C     8.6377886681    5.1167862029   -2.6678799680
     O     8.7084742978    6.1873823880   -1.8441643603
     N     9.8779996357    3.7537274575   -5.8832885930
     O     9.7300236126    2.7390751042   -6.5554607191
     O    10.6000944816    4.6878230102   -6.2153446873
     C     3.6010344420    2.9109287311    3.5553447092
     C     3.6499668105    1.6391666345    4.1418870963
     C     2.8513075893    1.3460234959    5.2400663165
     C     1.9897988097    2.3108133350    5.7628422644
     C     1.9362950290    3.5780621658    5.1868772499
     C     2.7438043067    3.8814811966    4.0956788164
     H     4.8011085511   -2.5066344687   -0.5261113029
     H     4.8250608175   -1.5950764082    0.9963180470
     H     6.2183473867   -1.5224329679   -0.1098363508
     H     3.4059505335   -0.4248596397   -0.7006291079
     H     4.7880828950   -0.3685936102   -1.8224598288
     H     5.0261244867    5.1554809235    3.2578419524
     H     7.2912810011    5.0864006072   -0.4933526857
     H     7.0345865767    2.1062904846   -2.6690455640
     H     8.2562661679    1.9166192838   -4.8402573607
     H     9.9555651225    5.8180381936   -4.2152929808
     H     9.2964568900    6.8611767704   -2.2196684197
     H     4.3215659292    0.8881736610    3.7415595004
     H     2.9039199399    0.3598923155    5.6930076658
     H     1.3636039675    2.0747693801    6.6189616825
     H     1.2657227126    4.3338453713    5.5860627682
     H     2.6889395351    4.8687578836    3.6437819444
