49
-1.3515512821250363e+03 frame 82   xyz file generated by TeraChem
     C     5.9190905476   -0.4073653875   -1.6042980720
     C     5.2457014720    0.6509319029   -0.7569960795
     O     5.4071485609    0.3787561633    0.6459198856
     C     4.5239556197   -0.4685324469    1.1948592045
     O     3.6234397440   -0.9961296302    0.5648946090
     C     4.7692534413   -0.6639970828    2.6255131347
     C     4.1817029130   -1.6446547980    3.3993480429
     N     4.5236427553   -1.4422885128    4.7279338610
     C     5.3611746364   -0.3652888804    4.8850640767
     O     5.8449042195    0.0382919080    5.9456744238
     C     5.5367481435    0.1795712573    3.5295353374
     N     6.2249878768    1.2535806958    3.2316252085
     N     6.8352520207    1.8838243417    4.2008492084
     C     7.5682805627    3.0417092716    3.9571845458
     C     7.6874218236    3.6168050545    2.6914912719
     C     8.4325483366    4.7793292807    2.5227046411
     C     9.0613298873    5.3731138215    3.6157078164
     C     8.9476784822    4.8029110789    4.8824422011
     C     8.2057663302    3.6398514215    5.0599981853
     O     8.0450604298    3.0171979317    6.2562082871
     C     3.3314790858   -2.7905922388    3.0703696643
     C     3.6010454173   -3.6025053376    1.9334668011
     C     2.8315645405   -4.7035602774    1.6677612768
     C     1.7434165357   -5.0601050769    2.5072343729
     C     1.4676456272   -4.2528468645    3.6512579309
     C     2.2870757145   -3.1290444276    3.9122184416
     C     0.3808747771   -4.5988984001    4.4945007097
     C    -0.3961535977   -5.6982628278    4.2170524339
     C    -0.1201887321   -6.5001446407    3.0853346989
     C     0.9267410648   -6.1879482667    2.2494756348
     H     5.8491055950   -0.1321005809   -2.6621361474
     H     5.4351263968   -1.3787090454   -1.4680982808
     H     6.9779079764   -0.4987330527   -1.3419597098
     H     4.1793459305    0.7252966555   -0.9846704803
     H     5.7112821092    1.6292493868   -0.8973436004
     H     4.3065447417   -2.0893405723    5.4745934024
     H     6.7632570546    1.5243149907    5.1580171215
     H     7.1898016354    3.1413395355    1.8529101609
     H     8.5195746690    5.2204451459    1.5341384537
     H     9.6429031967    6.2816633748    3.4886946558
     H     9.4356923256    5.2559416928    5.7427124876
     H     8.5082773925    3.5131876450    6.9480733313
     H     4.4323830303   -3.3473132171    1.2864980774
     H     3.0506464143   -5.3267660427    0.8040427347
     H     2.0605642080   -2.5145148559    4.7808210082
     H     0.1744912167   -3.9780861694    5.3632866261
     H    -1.2272489276   -5.9559121741    4.8679004393
     H    -0.7421417897   -7.3667314975    2.8777383712
     H     1.1417719384   -6.8012046360    1.3775407919
