43
-1.1980822254162845e+03 frame 41   xyz file generated by TeraChem
     C     5.4622552985    0.4750672418    1.5220953393
     C     5.0331673485   -0.9387504369    1.1933509022
     O     5.3752623464   -1.2887073603   -0.1587529660
     C     4.5118828844   -0.9022199658   -1.1111091876
     O     3.4811597599   -0.2978646841   -0.8682023241
     C     4.9576100241   -1.3021772054   -2.4479599273
     C     4.3547205909   -0.9223741739   -3.6313885694
     N     4.9573232073   -1.5937613582   -4.6843496039
     C     5.9822085159   -2.4033395172   -4.2618838904
     O     6.7081544885   -3.0987362160   -4.9774349664
     C     6.0075123299   -2.2493721606   -2.7993019501
     N     6.8161925033   -2.8878529199   -1.9904903934
     N     7.6875037449   -3.7113671214   -2.5121831081
     C     8.5633716645   -4.4365468483   -1.7096896207
     C     8.5798314611   -4.3426044632   -0.3175576661
     C     9.4818652355   -5.1022081573    0.4207091084
     C    10.3704725915   -5.9590045328   -0.2265210686
     C    10.3592821074   -6.0567946170   -1.6167342151
     C     9.4621559225   -5.2998683112   -2.3628231294
     O     9.3860633355   -5.3355025306   -3.7181952268
     C     3.2645695164    0.0035359254   -3.9529006757
     C     3.1531193616    1.2555963873   -3.3330384756
     C     2.1407675741    2.1321475957   -3.7035659191
     C     1.2246803829    1.7746918787   -4.6931502002
     C     1.3301994215    0.5341227368   -5.3178822557
     C     2.3473134013   -0.3435175302   -4.9567399863
     H     5.2591432343    0.6859063474    2.5775503120
     H     4.9115146251    1.1983702794    0.9139180298
     H     6.5344990161    0.6065744312    1.3450893839
     H     3.9576258534   -1.0727360398    1.3344674840
     H     5.5680888220   -1.6695230033    1.8043269619
     H     4.7624886571   -1.4104080481   -5.6598091733
     H     7.7173011860   -3.8338007312   -3.5294666712
     H     7.8794723268   -3.6717694075    0.1685779551
     H     9.4875589163   -5.0230395008    1.5038328093
     H    11.0756759947   -6.5546964349    0.3458279094
     H    11.0475398176   -6.7211089662   -2.1348773044
     H    10.0473589477   -5.9530361223   -4.0657997662
     H     3.8663908342    1.5408508802   -2.5683932168
     H     2.0694702461    3.1029045502   -3.2206564009
     H     0.4330576112    2.4628261233   -4.9771024424
     H     0.6197520053    0.2460017881   -6.0877505667
     H     2.4140965413   -1.3157481801   -5.4385813375
