138
-2.9426027882324379e+03 frame 45   xyz file generated by TeraChem
     C     7.7933099518    3.3244907574   -3.9125096796
     C     8.0610415973    3.5444380833   -2.4290207192
     C     7.1930522833    2.7003957222   -1.4672950618
     C     7.6006206774    3.0409282942   -0.0157348210
     C     6.8468617241    2.2850636148    1.0705483243
     C     5.7102159759    2.9297336215   -1.6982211844
     C     4.9932981371    4.1071431208   -1.5716688432
     C     3.6101977823    4.1191692100   -1.8260570411
     C     2.9824340099    2.9242911617   -2.2180357307
     C     3.6978524019    1.7376697733   -2.3466455037
     C     5.0667779515    1.7407625369   -2.0819445554
     C     6.0636483901    0.6691421212   -2.1193812209
     C     7.3097214394    1.2137466527   -1.7594068603
     C     8.4379228171    0.4060040392   -1.7117885504
     C     8.3150671787   -0.9505734084   -2.0245497890
     C     7.0765562412   -1.4895536709   -2.3816740717
     C     5.9399111375   -0.6841132755   -2.4323806925
     C     2.8367734068    5.3681671777   -1.6676968231
     C     1.7437529975    5.6638834122   -2.4980658920
     C     1.0282328566    6.8423531851   -2.3458178881
     C     1.3850512104    7.7707476233   -1.3596902015
     C     2.4715378794    7.4816592067   -0.5244566193
     C     3.1805281818    6.3002402993   -0.6751042471
     C     0.6393167300    9.0348537760   -1.2089320445
     N    -0.4264717012    9.2306219723   -1.9927447035
     C    -1.0624603625   10.3951615524   -1.8245540599
     N    -0.6929252513   11.3372379973   -0.9501019997
     C     0.3863750549   11.0527281545   -0.2137409689
     N     1.0811469597    9.9136171159   -0.3028535774
     C     0.8491420693   12.0675304248    0.7520414095
     C     0.2057997147   13.3078141657    0.8477742444
     C     0.6594513297   14.2706150599    1.7366183528
     C     1.7678155867   14.0285563654    2.5642339599
     C     2.3980777460   12.7771870086    2.4712023627
     C     1.9502022532   11.8143385513    1.5797653509
     C     2.2670121883   15.0667616225    3.4897364274
     C     1.3797257118   15.9638267457    4.1091376388
     C     1.8363406274   16.9642604695    4.9609884862
     C     3.2050619958   17.0746442779    5.2009775237
     C     4.1046199756   16.1797518519    4.5968293811
     C     3.6439998635   15.1849593930    3.7505899638
     C     5.5369977748   16.4938719266    4.9942368745
     C     6.4087556019   16.8360768870    3.7641991313
     C     5.9060860054   17.9900563362    2.9066697636
     C     6.1954597283   15.3117236223    5.7412062278
     C     5.4692776434   14.8408934747    6.9950096106
     C     5.3344990148   17.6946794460    5.9021495635
     C     3.9705963748   18.0185123836    6.0162325922
     C     3.5539570426   19.0917499427    6.8029598406
     C     4.5170337862   19.8407925818    7.4769673194
     C     5.8725706462   19.5217069333    7.3648044151
     C     6.2885936263   18.4457717057    6.5758988614
     C    -2.2489139520   10.6597511888   -2.6604099984
     C    -2.6806448037    9.7213147291   -3.6062302905
     C    -3.7937220371    9.9749228089   -4.3933497087
     C    -4.5147652624   11.1731617507   -4.2659047551
     C    -4.0757972614   12.1073846528   -3.3138912151
     C    -2.9638268515   11.8564357331   -2.5246064918
     C    -5.6961865153   11.4434709130   -5.1110493391
     C    -6.7857345639   12.1746462715   -4.6070116597
     C    -7.9053284979   12.4402632026   -5.3886113734
     C    -7.9407481885   11.9700186613   -6.7004381270
     C    -6.8595903091   11.2368077463   -7.2193926022
     C    -5.7484268985   10.9738578977   -6.4357498469
     C    -7.1129137366   10.8379791047   -8.6626777100
     C    -7.1195187049    9.3020876201   -8.8398073162
     C    -8.1175971283    8.5474846361   -7.9714275961
     C    -6.0545191552   11.4341797818   -9.6189526666
     C    -5.9076961537   12.9492807381   -9.5693101997
     C    -8.4885041966   11.4397095909   -8.8973433855
     C    -8.9577441782   12.0959632397   -7.7455339039
     C   -10.2035034665   12.7226874562   -7.7384620357
     C   -10.9776729053   12.6865503989   -8.8970863844
     C   -10.5131911784   12.0353715376  -10.0426603641
     C    -9.2642602694   11.4082536327  -10.0482828175
     H     8.4409767961    3.9683065314   -4.5174182299
     H     6.7545462080    3.5585077233   -4.1696875019
     H     7.9874752845    2.2865105512   -4.2031472654
     H     7.9064306211    4.6026229958   -2.1786677908
     H     9.1144716475    3.3272030671   -2.2070541367
     H     7.4632019462    4.1217592911    0.1241872113
     H     8.6783734832    2.8543360568    0.0851729482
     H     5.7686653786    2.4702320954    1.0119155643
     H     7.1871370454    2.6014616330    2.0624953378
     H     7.0076768708    1.2044280809    0.9909480070
     H     5.4983449234    5.0294917528   -1.2933721937
     H     1.9102404939    2.9188690088   -2.3951860953
     H     3.1863301265    0.8239006394   -2.6391670406
     H     9.4063283107    0.8175563372   -1.4353227938
     H     9.1912906904   -1.5928629258   -1.9899666685
     H     6.9990639952   -2.5467564677   -2.6220204957
     H     4.9774404997   -1.1068147301   -2.7107469315
     H     1.4681914047    4.9729896258   -3.2899653956
     H     0.1921743661    7.0629077793   -3.0012382233
     H     2.7473378817    8.1899878798    0.2497783444
     H     4.0021028278    6.0837262953    0.0017871169
     H    -0.6433550731   13.5142217800    0.2044776912
     H     0.1669154324   15.2383259051    1.7686228379
     H     3.2394896044   12.5503844611    3.1199560830
     H     2.4467040570   10.8515355622    1.5195049720
     H     0.3118952530   15.8621249646    3.9353083537
     H     1.1289074782   17.6429774862    5.4311053995
     H     4.3453579668   14.5148708204    3.2583754023
     H     6.4917219337   15.9286820109    3.1510132502
     H     7.4236582788   17.0573668698    4.1214652081
     H     4.9096792042   17.7823737417    2.5014728064
     H     6.5819278170   18.1619737284    2.0620493189
     H     5.8471882343   18.9190813686    3.4840109540
     H     7.2212001261   15.6080011662    5.9992117349
     H     6.2856156715   14.4769063906    5.0330852315
     H     5.4161657172   15.6346752860    7.7479328909
     H     5.9939409368   13.9898344938    7.4423915474
     H     4.4461832635   14.5221441945    6.7674238286
     H     2.4996628431   19.3432731101    6.8905136543
     H     4.2111769916   20.6810781268    8.0948498456
     H     6.6110001998   20.1170751094    7.8956150482
     H     7.3466393018   18.2061147533    6.4940774008
     H    -2.1384794428    8.7872090802   -3.7111307427
     H    -4.1252801533    9.2214735098   -5.1023084433
     H    -4.5981042602   13.0542787641   -3.2098293050
     H    -2.6304782676   12.5925409649   -1.8006409375
     H    -6.7651118611   12.5186879477   -3.5764409327
     H    -8.7387832169   13.0006398746   -4.9721455932
     H    -4.9022190501   10.4296656068   -6.8492142879
     H    -6.1033240284    8.9376843370   -8.6364176827
     H    -7.3159362836    9.0875925852   -9.8988377870
     H    -7.9378716206    8.7289300542   -6.9062230628
     H    -8.0369232835    7.4690382290   -8.1455855838
     H    -9.1475860492    8.8460638477   -8.1946886270
     H    -6.3128291278   11.1209563010  -10.6394604589
     H    -5.0897703638   10.9618323727   -9.3887607276
     H    -6.8439329975   13.4509420279   -9.8373316372
     H    -5.1368973444   13.2817601772  -10.2730439682
     H    -5.6172207797   13.2900334045   -8.5695771349
     H   -10.5670928017   13.2309182470   -6.8485164289
     H   -11.9514094788   13.1693696157   -8.9103029039
     H   -11.1292740367   12.0170868502  -10.9379838697
     H    -8.9106406820   10.9040804456  -10.9452061895
