39
-1.5060254988342583e+03 frame 65   xyz file generated by TeraChem
     C     2.8942668716   -0.6559825255    0.9178532670
     O     3.6295356697    0.5388423294    1.1131287790
     C     3.9123959849    1.2910551979    0.0233046372
     C     3.5281399000    0.9736335716   -1.2823539977
     C     3.8823553166    1.8201196887   -2.3294687132
     C     4.6158848825    2.9890429406   -2.1091090471
     C     4.9898615670    3.2942267292   -0.7897964731
     C     4.6461388246    2.4619195481    0.2598718793
     C     4.9973750556    3.8678462756   -3.2174767968
     N     5.8299366087    4.9046055759   -3.0036793308
     N     5.9782559104    5.4839943588   -4.1931992243
     C     5.2605365878    4.8546733428   -5.1774875993
     C     4.6118315351    3.7959797874   -4.5717770240
     C     5.3203439021    5.3478981512   -6.5439858953
     O     4.7384957956    4.8352516269   -7.4933713004
     N     6.1249165118    6.4601295822   -6.6884070178
     C     6.8436502058    7.0814783954   -5.6777495682
     C     6.7631560426    6.5950801601   -4.4158877330
     C     7.6502042481    8.2616583803   -6.0239101645
     C     8.8621253161    8.5029184394   -5.3632792879
     C     9.6280239711    9.6219988812   -5.6621652944
     C     9.1849730248   10.5035746488   -6.6441598659
     C     7.9909383025   10.2838196094   -7.3231167075
     C     7.2279403579    9.1652219796   -7.0081051121
    Cl    10.1454857707   11.9031580767   -7.0340268451
     H     2.7800419518   -1.1025761956    1.9065328833
     H     3.4320434943   -1.3519838399    0.2629574960
     H     1.9040930730   -0.4503573532    0.4937345662
     H     2.9608968400    0.0742579113   -1.4955939894
     H     3.5820615166    1.5494640621   -3.3381594724
     H     5.5577966800    4.1988241650   -0.5943555619
     H     4.9362881182    2.6985887161    1.2795571854
     H     3.9527684322    3.0887653026   -5.0532609405
     H     6.2401771996    6.7839968862   -7.6418343894
     H     7.2470882973    7.0291801620   -3.5531077452
     H     9.2242729933    7.7964605422   -4.6222699206
     H    10.5678634029    9.7985465412   -5.1492726905
     H     7.6544873190   10.9829649534   -8.0817837568
     H     6.2803598856    9.0204205522   -7.5199032516
