46
-1.3408149462333329e+03 frame 80   xyz file generated by TeraChem
     C     2.9741847482   -0.2829895907    0.8200865989
     S     3.4814608027   -1.4055955577   -0.5004244307
     C     3.6863205352   -0.3459199066   -1.9019166032
     C     3.4663767486    1.0366519560   -1.8830868285
     C     3.6568207597    1.7948483597   -3.0314995316
     C     4.0707748166    1.2108090903   -4.2397266425
     C     4.2839735169   -0.1793543177   -4.2392646641
     C     4.0981832202   -0.9461920092   -3.0992970752
     C     4.2932467595    1.9575600534   -5.4750577186
     C     4.1322759384    3.2843295455   -5.6555100000
     C     4.3630573231    4.0401311182   -6.8838504558
     C     4.8347575085    3.4426183823   -8.0792296172
     C     5.0569418395    4.1711554407   -9.2349235711
     C     4.7989627600    5.5463905998   -9.2069372369
     C     4.3292349321    6.1760711341   -8.0280711038
     C     4.1139209584    5.4186309596   -6.8778750173
     C     4.1833212104    7.5768872929   -8.3459629834
     C     3.7658039502    8.6977076878   -7.6227133887
     C     3.7521456482    9.9375108741   -8.2503673016
     C     4.1521973676   10.0659661083   -9.5905540315
     C     4.5696334239    8.9674283273  -10.3336637753
     C     4.5757108985    7.7221653813   -9.7005131934
     N     4.9261264482    6.4843562314  -10.2088250456
     C     5.4609586918    6.2387484751  -11.5348326990
     C     6.9737372217    6.4010964972  -11.6031489047
     H     2.8502342712   -0.9091501305    1.7072681322
     H     2.0210053796    0.2007270033    0.5914734498
     H     3.7412214105    0.4694130206    1.0211233844
     H     3.1460015121    1.5351298439   -0.9739215875
     H     3.4784371349    2.8653031471   -2.9753704513
     H     4.6059241721   -0.6657071492   -5.1577440027
     H     4.2752738877   -2.0186498725   -3.1367962894
     H     4.6242964657    1.3450457973   -6.3132254320
     H     3.7953658093    3.8918105370   -4.8154936375
     H     5.0378980430    2.3757825158   -8.0997251782
     H     5.4268276915    3.6806183276  -10.1306178621
     H     3.7534136785    5.8948825573   -5.9680989653
     H     3.4588972463    8.5994777690   -6.5842305574
     H     3.4319213416   10.8181645358   -7.7003954211
     H     4.1380944359   11.0462770564  -10.0598354478
     H     4.8821932135    9.0801984807  -11.3677214665
     H     4.9648473444    6.9262690720  -12.2268388844
     H     5.1651525834    5.2276712981  -11.8307140969
     H     7.2689362351    7.4178186809  -11.3243908613
     H     7.3266923365    6.2065135147  -12.6212781916
     H     7.4707166696    5.6986255917  -10.9260905587
