42
-1.4125550556760350e+03 frame 65   xyz file generated by TeraChem
     O     1.3942378367    0.4038732052   -0.1233699755
     C     2.6196917506    0.3801654337   -0.1497234990
     C     3.3338720023    0.3859737178   -1.4597159317
     C     2.6943789018    0.9857662114   -2.5524577261
     C     3.2924972317    0.9827219552   -3.8058487692
     C     4.5263901382    0.3559195127   -3.9873570792
     C     5.1573889080   -0.2660592154   -2.9122927728
     C     4.5685599991   -0.2468291118   -1.6507188111
     C     3.3872765751    0.3466858155    1.1265302360
     C     2.7556330631   -0.1753708746    2.2637269521
     C     3.4036802292   -0.2030241044    3.4863495909
     C     4.6990013998    0.3272368451    3.6239599578
     C     5.3161097586    0.8771939355    2.4905057376
     C     4.6757994309    0.8781458269    1.2588356913
     C     5.3714990282    0.3035376166    4.9216265993
     S     7.1027644179    0.3617735027    5.0510341790
     C     7.0548687270    0.2909088788    6.7679388745
     C     5.7612518787    0.2215692688    7.2256027600
     C     4.8043456739    0.2271086161    6.1688381958
     N     5.3453745067    0.1550183782    8.5559314598
     C     6.1533632443    0.1789907344    9.6559485717
     O     7.3725606659    0.3023025073    9.5838705780
     C     5.4589735564    0.0534902461   10.9781728129
     C     4.3518206514   -0.6829568512   11.1236900707
     C     6.1556772532    0.7337579754   12.1172430836
     H     1.7277759908    1.4564376423   -2.3984228811
     H     2.7972689873    1.4641868540   -4.6446920636
     H     4.9922751473    0.3481106168   -4.9692032392
     H     6.1093383971   -0.7699747106   -3.0551492065
     H     5.0570565604   -0.7490457211   -0.8209180824
     H     1.7516007199   -0.5771543804    2.1654744247
     H     2.9126843356   -0.6536230465    4.3438640104
     H     6.3012661188    1.3286941767    2.5754783113
     H     5.1714416199    1.3283140811    0.4041854844
     H     7.9616493907    0.3036035906    7.3512744484
     H     3.7326086458    0.2004738200    6.3399777559
     H     4.3472050963    0.1555139246    8.7126204106
     H     3.8925744016   -1.2223072275   10.2989319857
     H     3.8817833620   -0.7971583645   12.0972638704
     H     6.2174895393    1.8159324258   11.9506111610
     H     7.1846182012    0.3688866442   12.2014484113
     H     5.6341007659    0.5526728430   13.0604460099
