40
-9.9345199816966533e+02 frame 80   xyz file generated by TeraChem
     O     4.4537474197    3.7585111211    4.0223680139
     C     4.8067158787    2.8772463134    3.2281607222
     C     5.9533739166    2.0304225653    3.4699203422
     C     6.3333440740    1.0526087341    2.6019669145
     C     5.6514049894    0.7737334113    1.3781148337
     C     6.0759942892   -0.2418815783    0.5164227458
     C     7.1517358517   -1.1164322693    0.6920306441
     C     7.4863753852   -2.1470359206   -0.2023128147
     C     6.6536566611   -2.5099888619   -1.3128234549
     C     6.9468336159   -3.5641654601   -2.1092265829
     C     8.0815782247   -4.3870966870   -1.8355573549
     C     8.9198122180   -4.0316450099   -0.7508795386
     N     8.6500635134   -2.8692095761   -0.0324762832
     C     9.6404323211   -2.3928432171    0.9268998155
     C    10.0001933672   -4.8725555663   -0.4292452541
     C    10.2533751131   -6.0031976115   -1.1905094155
     C     9.4469773388   -6.3388537487   -2.2843216250
     C     8.3658203395   -5.5354551972   -2.5928259381
     C     4.4881343038    1.5972406416    1.0668833673
     C     4.0713288438    2.6178364988    1.9603252285
     N     3.0031080174    3.4068471918    1.7361685958
     C     2.3037344407    3.2284593110    0.6290968946
     C     2.6208924593    2.2528140723   -0.3253379841
     C     3.7114960803    1.4407943932   -0.1010646743
     H     6.5064507536    2.2064274694    4.3887264273
     H     7.2050795193    0.4548443243    2.8542557001
     H     5.5066405168   -0.3552600522   -0.3997163386
     H     7.7487903409   -1.0149794898    1.5889992184
     H     5.7573752392   -1.9314052860   -1.4951556869
     H     6.3020284821   -3.8213517327   -2.9452659010
     H    10.6342925343   -2.7013827020    0.6074650626
     H     9.4446864157   -2.7749986754    1.9345108079
     H     9.6241472100   -1.3027940438    0.9431216953
     H    10.6300884650   -4.6698097385    0.4279978263
     H    11.0907794133   -6.6399286144   -0.9194118854
     H     9.6611525158   -7.2256385786   -2.8729224425
     H     7.7088979575   -5.7790810780   -3.4240545570
     H     1.4470747372    3.8849354148    0.4806975936
     H     2.0167299196    2.1413894397   -1.2208961117
     H     3.9578761671    0.6825139812   -0.8372725310
