45
-1.0339248033634326e+03 frame 46   xyz file generated by TeraChem
     O     1.7816050074    0.8201701624   -3.4486982450
     C     2.7660957992    0.3854989280   -2.8416308815
     C     2.9408346558   -1.0225561477   -2.5545364393
     C     4.0173628326   -1.4967823074   -1.8734806074
     C     5.0725959312   -0.6637391561   -1.3820806261
     C     6.1446983701   -1.1913890917   -0.6694154490
     C     6.3777554736   -2.5387611147   -0.3420562701
     C     7.4561668612   -3.0010673277    0.3890340348
     N     7.6164716029   -4.3237973656    0.6668977873
     C     6.7020149137   -5.3542587586    0.2270006002
     C     8.7681485064   -4.5563059196    1.4295681575
     C     9.4057172729   -3.3376637963    1.6656281792
     C     8.6191410464   -2.2233588185    1.0101220665
     C     9.4800159397   -1.5313275774   -0.0617178973
     C     8.1404273142   -1.2193174899    2.0721399158
     C    10.5752631245   -3.2960983994    2.4046283744
     C    11.1007999135   -4.4918164453    2.9060101884
     C    10.4521171077   -5.7017493806    2.6620442242
     C     9.2712612824   -5.7565415731    1.9181182725
     C     4.9673254376    0.7687905867   -1.6511563351
     C     3.8505756805    1.2841190562   -2.3559731780
     N     3.6873093763    2.5907291566   -2.6344736034
     C     4.6147376310    3.4433302149   -2.2337250108
     C     5.7627965520    3.0493895066   -1.5347491972
     C     5.9352513157    1.7121297375   -1.2471598441
     H     2.1611515225   -1.6933745436   -2.9051321682
     H     4.0757898349   -2.5656865186   -1.6877421834
     H     6.8877581166   -0.4840686061   -0.3221090564
     H     5.6647035741   -3.2844702709   -0.6784978721
     H     7.0587305064   -6.3257877452    0.5651131744
     H     6.6372801646   -5.3651047763   -0.8660004093
     H     5.7033702726   -5.1812048070    0.6417335212
     H     9.8047379502   -2.2466606823   -0.8234783754
     H    10.3698022972   -1.1038735317    0.4123662918
     H     8.9364604891   -0.7210977484   -0.5555012539
     H     7.5265145198   -1.7141061134    2.8311410968
     H     7.5548965699   -0.4087826970    1.6296521970
     H     9.0101822514   -0.7758889845    2.5682765820
     H    11.0786047118   -2.3507990633    2.5938953006
     H    12.0174799060   -4.4770930465    3.4884158152
     H    10.8683744538   -6.6247696224    3.0563198771
     H     8.7791720646   -6.7075361226    1.7405451007
     H     4.4508871957    4.4929343080   -2.4747768036
     H     6.5004735348    3.7855015979   -1.2291860260
     H     6.8267689830    1.4036535688   -0.7103027860
