38
-9.2115102893954690e+02 frame 54   xyz file generated by TeraChem
     O     1.2251805407    0.8488317513   -0.3056622347
     C     2.3772143773    0.4509125680   -0.1754113267
     C     2.9491858612   -0.5106156339   -1.1616862287
     C     2.4334082844   -0.5029816394   -2.4644026022
     C     2.8985230334   -1.4077891643   -3.4098942446
     C     3.8669077907   -2.3488556423   -3.0561259358
     C     4.3674747431   -2.3800907435   -1.7562900415
     C     3.9171014126   -1.4606442479   -0.8125968807
     C     3.1990405271    0.9316242087    0.9728219481
     C     2.5300337860    1.3429020187    2.1317266417
     C     3.2394030969    1.8395930901    3.2158875928
     C     4.6299218767    1.9697735020    3.1549616947
     C     5.2982276489    1.5827679854    1.9909658991
     C     4.5926252563    1.0598069245    0.9131557943
     C     5.3755280890    2.5726157129    4.3124364508
     O     6.5975418422    1.8758344155    4.4870867091
     C     7.4507133681    2.3244167410    5.4481646361
     C     7.1813972463    3.3962425132    6.3027974992
     C     8.1316183370    3.7668339006    7.2561973140
     C     9.3380690127    3.0846316725    7.3681665671
     C     9.5962222129    2.0129096233    6.5103233696
     C     8.6628003577    1.6322604038    5.5557870036
     H     1.6702026505    0.2258821959   -2.7210989784
     H     2.5050602898   -1.3849434020   -4.4224974469
     H     4.2265636123   -3.0612594124   -3.7939335941
     H     5.1092495069   -3.1222892632   -1.4745409463
     H     4.2985208066   -1.5006292737    0.2033789777
     H     1.4487217729    1.2533232016    2.1734584209
     H     2.7106557608    2.1314959270    4.1202720934
     H     6.3774302046    1.6880472980    1.9314540722
     H     5.1278638430    0.7798051375    0.0107272134
     H     4.7689627221    2.5171708701    5.2259434414
     H     5.5802841882    3.6350689244    4.1120730035
     H     6.2463845754    3.9422293110    6.2408455912
     H     7.9139442978    4.6021254276    7.9169644451
     H    10.0703220028    3.3806938650    8.1138397590
     H    10.5339938727    1.4682323596    6.5845264682
     H     8.8510921269    0.8009757077    4.8821507503
