67
-1.8526699115480651e+03 frame 82   xyz file generated by TeraChem
     O     1.9695438795    1.2216128295   -1.2062311489
     C     1.8079136862    0.5808193731   -0.1912547309
     C     0.4909794498    0.1188203856    0.3145938711
     C    -0.6475741028    0.4772715352   -0.4113805809
     C    -1.9049964000    0.0806654535    0.0243663733
     C    -2.0341881497   -0.6946438892    1.1830235589
     C    -0.8873732949   -1.0732354084    1.8914652598
     C     0.3676649705   -0.6589156809    1.4719844964
     C    -3.3543468067   -1.2195469975    1.6537120386
     O    -3.4036352485   -2.3189349103    2.1900808179
     C    -4.5925917259   -0.4137273041    1.4699708350
     C    -4.5795831249    0.9850278964    1.3955214574
     C    -5.7756752862    1.6901488059    1.2938959560
     C    -6.9885944274    1.0055701892    1.2521827491
     C    -7.0089269899   -0.3883111085    1.3284615270
     C    -5.8186622297   -1.0925888391    1.4486153533
     O     2.8202772394    0.2091223001    0.6250296198
     C     4.1241793054    0.5019265207    0.2325296918
     C     4.8414850158    1.3821083195    0.9385960961
     C     6.2382709587    1.6131980861    0.6059256348
     C     6.8451215787    0.9167573279   -0.3790019960
     C     6.1348730959   -0.0839109186   -1.1483746418
     C     6.7889731065   -0.8042531662   -2.0780821428
     O     6.1012008742   -1.6930499186   -2.8517183169
     C     6.7664583264   -2.7431163813   -3.4197888222
     C     7.9409712305   -3.2805690517   -2.8849705263
     C     8.5399289924   -4.3658147688   -3.5067044659
     C     7.9868104466   -4.9466213086   -4.6607206915
     C     6.7969178174   -4.3918102890   -5.1650956357
     C     6.1895781693   -3.3030991323   -4.5594472653
     C     8.5737507470   -6.0902519455   -5.3480896335
     C     9.7115039067   -6.7346734385   -5.0158512918
     C    10.2846248707   -7.8820763883   -5.7066718867
     C     9.7128163552   -8.4668436605   -6.8549953431
     C    10.2991035960   -9.5589612900   -7.4673976922
     C    11.4760392161  -10.0844666597   -6.9335138216
     C    12.0732789461   -9.5353131181   -5.8023429968
     C    11.4740116840   -8.4413196157   -5.2009254436
     N    12.0913931134  -11.2291062450   -7.5737745467
     O    11.5496573497  -11.6969741973   -8.5682977771
     O    13.1244574564  -11.6772078861   -7.0906216143
     C     4.6549651174   -0.3027132898   -0.9106799530
     H    -0.5342397462    1.0670862930   -1.3154435607
     H    -2.7844021402    0.3532768392   -0.5509141215
     H    -0.9963028787   -1.6919563253    2.7768349848
     H     1.2526340530   -0.9407259905    2.0320705104
     H    -3.6387024771    1.5251075575    1.4440692586
     H    -5.7598628918    2.7755218451    1.2493917150
     H    -7.9205934911    1.5577053457    1.1648346579
     H    -7.9549198137   -0.9218705995    1.2981697650
     H    -5.8170188439   -2.1759617379    1.5224073871
     H     4.3821919885    1.9166314219    1.7648357352
     H     6.7899451608    2.3529004674    1.1783365361
     H     7.8953255744    1.0833276475   -0.6073487858
     H     7.8450851497   -0.6794715797   -2.3042084190
     H     8.3700468589   -2.8699290196   -1.9762478908
     H     9.4481582179   -4.7732173496   -3.0726206344
     H     6.3461902727   -4.8253989903   -6.0546481614
     H     5.2742472505   -2.8740680469   -4.9556755372
     H     8.0062827935   -6.4314301503   -6.2133534714
     H    10.2826156016   -6.3968956584   -4.1524467539
     H     8.7975374388   -8.0632788219   -7.2756656867
     H     9.8609453226  -10.0094926160   -8.3503135944
     H    12.9882631667   -9.9643086937   -5.4105480449
     H    11.9298751732   -8.0031415632   -4.3171276690
     H     4.4506496332   -1.3671463857   -0.7229354338
     H     4.0825644530   -0.0587467718   -1.8175777348
