33
-8.5147954000471714e+02 frame 40   xyz file generated by TeraChem
     O     1.0617935254    0.3745737279   -0.5131829402
     C     2.2653232219    0.2682985396   -0.3856379118
     C     2.9616285233   -0.6673656047   -1.4443643985
     N     2.2219172833   -0.7337480419   -2.6909307218
     N     2.9537241369   -1.9725240867   -0.8031138716
     C     3.7375459241   -3.0237754793   -1.2019830404
     O     3.4970658869   -4.1768355261   -0.8792885364
     C     4.9278948924   -2.6150538907   -1.9914002494
     C     5.1760438979   -1.2450766863   -2.2189972581
     N     4.3306944644   -0.2964084646   -1.7116479873
     N     6.2584657015   -0.8313943616   -2.8853269615
     C     7.0725043334   -1.7867092908   -3.3263096240
     C     6.8242724419   -3.1445773850   -3.1163457138
     N     5.7513467804   -3.5540091993   -2.4432015410
     C     3.0060230176    0.9505808893    0.7647801364
     C     1.9722569932    1.3958057897    1.8029024062
     C     4.0312639795    0.0262019303    1.4364594597
     C     3.7151395538    2.2030758482    0.2108919799
     H     1.2344859208   -0.8470734522   -2.4611260723
     H     2.2872752962    0.1707805102   -3.1581056829
     H     2.0834281244   -2.2446364487   -0.3591108356
     H     4.4644246167    0.6245003070   -2.1144253616
     H     7.9568521518   -1.4633227072   -3.8713277509
     H     7.5032371989   -3.9038924261   -3.4945224531
     H     1.4147597941    0.5402890955    2.1984629837
     H     1.2535691001    2.1034663002    1.3796998823
     H     2.4894025410    1.8846690234    2.6357162067
     H     3.5464042375   -0.8553199038    1.8687444546
     H     4.5169389354    0.5803452486    2.2477964126
     H     4.7995308345   -0.3090515514    0.7368271697
     H     3.0190722002    2.8468051351   -0.3383264096
     H     4.5581386563    1.9544070347   -0.4388874375
     H     4.1118056146    2.7783750602    1.0552219986
