16
-3.4252428674167953e+02 frame 51   xyz file generated by TeraChem
     N     0.7787442208   -0.4882043249   -0.0705533458
     N     2.0006091577   -1.0634187428    0.3166210197
     C     2.9319143073   -1.3112589113   -0.6885656043
     C     2.5616531329   -1.4497388905   -2.0338704028
     C     3.5211218858   -1.7620038343   -2.9928355853
     C     4.8589304781   -1.9395388675   -2.6436460667
     C     5.2277994824   -1.7967818633   -1.3054626657
     C     4.2815655601   -1.4836021625   -0.3375154346
     H     0.8314526462    0.5285415341   -0.0053265886
     H     0.0713893517   -0.7954464003    0.5902298526
     H     2.4169990091   -0.6590856284    1.1501575648
     H     1.5224903479   -1.3061089425   -2.3090034985
     H     3.2140904652   -1.8645342248   -4.0312842715
     H     5.6015630419   -2.1798086923   -3.3992395749
     H     6.2666277470   -1.9237932027   -1.0098084620
     H     4.5797779862   -1.3695657075    0.7031661185
