64
-1.4575039759963188e+03 frame 57   xyz file generated by TeraChem
     O     1.6090744169   -2.4522885857   -0.1577243987
     C     2.7356154596   -1.9846260142   -0.2233375056
     C     3.1121998153   -0.5837528646   -0.6845595803
     N     4.5468948620   -0.4730289286   -0.4184018558
     C     5.0815526189   -1.8583569070   -0.3584098780
     N     3.9000648244   -2.6056726017    0.0857216421
     C     5.5102117240   -2.3539673604   -1.7331525062
     C     6.2077067162   -1.8336683601    0.7279480635
     C     5.8259309096   -0.6004589569    1.5138705602
     C     4.9191892007    0.1687303323    0.7797292287
     C     4.5029914689    1.4273694482    1.2442252987
     C     4.9832858945    1.8275458938    2.5007606017
     C     5.8613188649    1.0544088996    3.2671905096
     C     6.2957698872   -0.1744821928    2.7416424910
     C     6.3436006257    1.5287493080    4.5822208505
     C     5.4903676367    2.2849620657    5.4353216579
     C     5.9168614487    2.7199274058    6.6645450514
     C     7.2246514722    2.4291923362    7.1292927326
     C     8.0932450620    1.6746637708    6.2841155706
     C     7.6242729260    1.2444639921    5.0197394250
     C     9.4060288270    1.3824257007    6.7368286470
     C     9.8341398029    1.8104112860    7.9707850394
     C     8.9704477726    2.5533856445    8.8096082177
     C     7.6944712859    2.8563405712    8.3964103498
     C     3.6438643034    2.3538278121    0.4690352857
     C     3.8835008899    2.5736160266   -0.9177087539
     C     3.1364716579    3.4778485936   -1.6289980414
     C     2.0988243761    4.2197543470   -1.0081453207
     C     1.8451379097    4.0049736951    0.3799743490
     C     2.6347197080    3.0662923026    1.0879855670
     C     0.8066690111    4.7381011196    1.0095659937
     C     0.0578853388    5.6449752646    0.2978051057
     C     0.3120714179    5.8595321842   -1.0769429489
     C     1.3101079292    5.1612339435   -1.7151705398
     C     6.2486372503   -3.1103222561    1.5676657906
     C     7.5948143886   -1.5965291488    0.1084654010
     H     2.5374703760    0.1705529494   -0.1455819457
     H     2.8856127810   -0.4816132065   -1.7526620180
     H     3.9209869266   -3.6106381519    0.2025365315
     H     4.6586051823   -2.3227586678   -2.4208226991
     H     5.8557596139   -3.3921666581   -1.6715879665
     H     6.3126595548   -1.7404320732   -2.1482220729
     H     4.6933915577    2.8110418105    2.8609206296
     H     6.9773719036   -0.7995036583    3.3136067109
     H     4.4740900536    2.4967626009    5.1138409373
     H     5.2464787591    3.2862853946    7.3072401313
     H     8.3089192809    0.6939841753    4.3782857022
     H    10.0670465343    0.8107283240    6.0891753620
     H    10.8410469884    1.5785502817    8.3077772098
     H     9.3216046927    2.8853272193    9.7830377629
     H     7.0261795183    3.4278722367    9.0367496734
     H     4.6773648976    2.0187482358   -1.4096819868
     H     3.3377887228    3.6424443807   -2.6852228192
     H     2.4244259715    2.9030352744    2.1429079876
     H     0.6149065694    4.5704893502    2.0670338947
     H    -0.7343753436    6.2021537078    0.7907423783
     H    -0.2867053950    6.5799743683   -1.6278147390
     H     1.5088599226    5.3217462288   -2.7725138383
     H     5.3141239740   -3.2656181007    2.1139617032
     H     7.0634270982   -3.0481732695    2.2968716080
     H     6.4382682931   -3.9872637266    0.9364180166
     H     7.6115168461   -0.7010410159   -0.5217624777
     H     7.9146989648   -2.4539436577   -0.4936834341
     H     8.3258084473   -1.4564058167    0.9118116260
