27
-8.7284264249672333e+02 frame 29   xyz file generated by TeraChem
     N     1.4491328047   -0.3285444740   -0.8685563655
     C     2.5436193914   -0.1265282819   -0.5238923488
     C     3.8898429852    0.0390572840   -0.1187062535
     C     4.7174774687   -1.1190344086    0.0468145102
     N     4.2166108636   -2.3480695336   -0.1331888784
     N     6.0061697944   -1.0370566575    0.3819374463
     C     6.5517856292    0.1642107361    0.5778284095
     C     5.8035470893    1.3800730017    0.4462594196
     C     4.4524202283    1.3030709946    0.0890404570
     C     3.6540649570    2.5359719572   -0.0915468268
     C     4.0415614047    3.5120301221   -1.0183322190
     C     3.2905840645    4.6687755922   -1.1936879116
     C     2.1415609717    4.8735235631   -0.4316549847
     C     1.7402043541    3.9231325664    0.5028778501
     C     2.4990110211    2.7743061688    0.6548687126
     F     2.1134826493    1.8621047432    1.5626983710
     C     6.4437539684    2.6125688444    0.7231422350
     N     7.0358015631    3.5846470472    0.9733961018
     N     7.8482978326    0.1920967056    0.9110133101
     H     3.2665223222   -2.5008999073   -0.4358669990
     H     4.8338744090   -3.1430344498   -0.0575270897
     H     4.9330353717    3.3438249118   -1.6157943590
     H     3.6019224743    5.4080843094   -1.9252096737
     H     1.5522104224    5.7765477885   -0.5619699458
     H     0.8539230602    4.0588634760    1.1145519621
     H     8.3443091684   -0.6803163056    1.0181340229
     H     8.3394217918    1.0552142476    1.0884613686
