27
-1.6925672773154879e+03 frame 42   xyz file generated by TeraChem
     N     1.6999389315   -0.4857180783   -1.2703296645
     C     2.7518160375   -0.2408107374   -0.8332878403
     C     4.0456379966   -0.0105116697   -0.3067249854
     C     4.9189220508   -1.1177643310   -0.0494177257
     N     4.5188477168   -2.3728490594   -0.2853527969
     N     6.1556584970   -0.9564009092    0.4253270908
     C     6.6064952093    0.2743767214    0.6719427527
     C     5.8060435761    1.4440499729    0.4502716036
     C     4.5096140619    1.2795068244   -0.0407890147
     C     3.6550769252    2.4639773008   -0.3092007130
     C     3.9211509540    3.2663477665   -1.4231783838
     C     3.1418474367    4.3769546304   -1.7199142620
     C     2.0797006554    4.6926877893   -0.8794353820
     C     1.7894089951    3.9273329570    0.2439653606
     C     2.5826343720    2.8181438649    0.5171659368
    Cl     2.2245648984    1.8905801549    1.9427618411
    Cl     1.0906815477    6.0777263335   -1.2311573196
     C     6.3357878227    2.7229409126    0.7484788291
     N     6.8277997156    3.7455354797    1.0125943947
     N     7.8528474565    0.3816658412    1.1468562156
     H     3.6006527188   -2.5863861564   -0.6447837567
     H     5.1564302465   -3.1335057753   -0.1018932942
     H     4.7516447846    3.0055985859   -2.0725697056
     H     3.3563229072    4.9871166595   -2.5906079919
     H     0.9655186891    4.1878005068    0.8988238161
     H     8.3972108981   -0.4560968617    1.2909084561
     H     8.2760639946    1.2751166337    1.3483318003
