27
-1.2331352068638409e+03 frame 32   xyz file generated by TeraChem
     N     1.3133517026   -0.3857957049   -0.3542982787
     C     2.4466947614   -0.1829037567   -0.1735796495
     C     3.8370384885   -0.0379220505    0.0527799054
     C     4.6240183641   -1.2131757543    0.2877933553
     N     4.0486431980   -2.4206975882    0.3507366211
     N     5.9475527562   -1.1692694320    0.4488989397
     C     6.5691113903    0.0099136247    0.3960737347
     C     5.8682997488    1.2414677364    0.1765276314
     C     4.4798728454    1.2052454432    0.0007388265
     C     3.7094987661    2.4466880234   -0.2351907723
     C     4.0515426391    3.3044371063   -1.2867278257
     C     3.3230314532    4.4648827298   -1.5201292350
     C     2.2531273551    4.7705885802   -0.6845342925
     C     1.8980134673    3.9381831937    0.3724324500
     C     2.6265596957    2.7743876932    0.5884530755
    Cl     1.3397585247    6.2262736944   -0.9679098569
     C     6.5981021954    2.4547715242    0.1998461331
     N     7.2650874500    3.4097836695    0.2362650927
     N     7.8966924439    0.0017716095    0.5691583124
     H     3.0570797241   -2.5529469644    0.2198131187
     H     4.6320599266   -3.2328801914    0.4871065688
     H     4.8798819219    3.0557790744   -1.9435548169
     H     3.5818676843    5.1224700060   -2.3435050007
     H     1.0654044063    4.1956825041    1.0187560636
     H     2.3598508312    2.1265633696    1.4182633750
     H     8.3646734038   -0.8786244956    0.7256049248
     H     8.4487138213    0.8453265608    0.5317810355
