39
-1.0806230391969832e+03 frame 39   xyz file generated by TeraChem
     N     6.4827912821    4.2348717521    2.4065754319
     C     6.0621157652    3.1580694119    2.2612181141
     C     5.6102787577    1.8215391616    2.1356959526
     C     6.3032316143    0.7688358029    2.8188181816
     N     7.3764184530    1.0347523948    3.5738459362
     N     5.9253502036   -0.5080882712    2.7331198205
     C     4.8643695121   -0.8260725456    1.9886850885
     C     4.1072182558    0.1579717143    1.2722320041
     C     4.4984485271    1.4963517564    1.3550172261
     C     3.7467349500    2.5548129680    0.6269141074
     C     2.7301518231    3.2647232158    1.2950509419
     C     2.3743974514    3.0092692288    2.6545692422
     C     1.3789183178    3.7210051110    3.2658342775
     C     0.6707667652    4.7344030932    2.5628740913
     C     0.9790014615    5.0073260904    1.2598616175
     C     2.0098608718    4.2884166940    0.5839979736
     C     2.3306327406    4.5567348104   -0.7475773053
     C     3.3368823786    3.8556490373   -1.4140612756
     C     4.0664075701    2.8293364294   -0.7169787251
     C     5.0948566054    2.1337553931   -1.4233864246
     C     5.3756321594    2.4318925551   -2.7284997128
     C     4.6515849022    3.4442502875   -3.4165670799
     C     3.6619235463    4.1347492113   -2.7751328820
     C     2.9868597146   -0.2392685596    0.5018373448
     N     2.0766440782   -0.6275726105   -0.1132015999
     N     4.5260393439   -2.1201914821    1.9356184158
     H     7.7090209319    1.9760398802    3.7195240620
     H     7.8302798491    0.2784252180    4.0644784327
     H     2.9042207532    2.2376314645    3.2056524262
     H     1.1232209686    3.5113672295    4.3009316458
     H    -0.1158682245    5.2873952302    3.0685945551
     H     0.4448715317    5.7780236659    0.7093291639
     H     1.7832308880    5.3318568353   -1.2801757720
     H     5.6576793670    1.3597479814   -0.9101328253
     H     6.1617345363    1.8913089080   -3.2486678358
     H     4.8914194772    3.6645555867   -4.4530517071
     H     3.1018505102    4.9125076814   -3.2888540582
     H     5.0760430220   -2.7933923939    2.4483927482
     H     3.7391600767   -2.4469207238    1.3954256012
