22
-6.7007431081911307e+02 frame 19   xyz file generated by TeraChem
     N     3.0685335869    0.1899386106    0.4679744746
     C     1.9122184642    0.2256384995    0.3558082962
     C     0.4934458211    0.2590140428    0.2190910903
     C    -0.1959852245    1.4614932081    0.0236828730
     C    -1.5728891117    1.4234476156   -0.1018193254
     C    -2.2391071728    0.1888348908   -0.0422508791
     N    -1.5699412773   -0.9609486382    0.1594729298
     C    -0.2529440799   -0.9256858821    0.2874938034
     C    -3.7056284933    0.0777489866   -0.1824899406
     C    -4.4742983087    1.0968684324   -0.7628751723
     C    -5.8518739861    0.9696089621   -0.8905287891
     C    -6.4579872051   -0.1899186153   -0.4289074838
     C    -5.7319709032   -1.2222487840    0.1488134309
     C    -4.3562252462   -1.0820657242    0.2641937982
     F    -7.7875494703   -0.3208150698   -0.5526255218
     H     0.3417640219    2.4035057988   -0.0188426137
     H    -2.1233631262    2.3491010230   -0.2262564645
     H     0.2506763709   -1.8765031199    0.4497692300
     H    -4.0014138326    1.9949119848   -1.1482457406
     H    -6.4531643278    1.7481015916   -1.3488665071
     H    -6.2438819164   -2.1132786397    0.4981189124
     H    -3.7652744475   -1.8760400579    0.7081996917
