27
-1.3322754722812842e+03 frame 38   xyz file generated by TeraChem
     N     1.3880281229   -0.3592237232   -1.0146320323
     C     2.4772219340   -0.1533016402   -0.6560820322
     C     3.8119154687    0.0293097557   -0.2206133684
     C     4.6427872759   -1.1099855675    0.0394898937
     N     4.1658019977   -2.3516013995   -0.1096712483
     N     5.9104634741   -0.9924114139    0.4385305157
     C     6.4356232617    0.2225778957    0.6044351926
     C     5.6831467782    1.4208469077    0.3726681782
     C     4.3555623374    1.3020371415   -0.0405800640
     C     3.5416015778    2.5160239959   -0.2995410983
     C     3.7275466141    3.2383380899   -1.4790840017
     F     4.6500448684    2.7962879672   -2.3447665930
     C     3.0007130724    4.3743874633   -1.7904128432
     C     2.0449479081    4.8165044546   -0.8818340352
     C     1.8259499467    4.1349861255    0.3117202558
     C     2.5733126012    2.9960952214    0.5904721248
    Cl     2.3057023490    2.1678882888    2.0955892216
     C     6.2898041336    2.6852069945    0.5659134530
     N     6.8360389997    3.6996962701    0.7382415951
     N     7.7100903888    0.2847746222    1.0072592097
     H     3.2314583305   -2.5315982248   -0.4449433000
     H     4.7822374695   -3.1350991686    0.0485081166
     H     3.1871041819    4.8905702841   -2.7262075169
     H     1.4622370313    5.7052284210   -1.1041054171
     H     1.0856340074    4.4816293292    1.0244802317
     H     8.2226670581   -0.5734523531    1.1473227843
     H     8.1914441582    1.1626336832    1.1317211237
