55
-1.3025295400702862e+03 frame 103   xyz file generated by TeraChem
     N     1.0352989367   -0.5993354834    1.1540517701
     C     2.0815454767   -0.5173379004    0.6513178479
     C     3.3849911804   -0.4827671983    0.0619416745
     C     3.6990173876    0.4033260181   -0.9220667597
     C     2.9405564920    1.4935219579   -1.5194417216
     C     1.7718065071    2.0590837927   -0.9767915076
     C     1.1284314074    3.1061874880   -1.6244188728
     C     1.6308987550    3.6158725466   -2.8220809759
     C     2.7939384572    3.0748674070   -3.3676137017
     C     3.4428536958    2.0318822176   -2.7195518051
     C     4.3349349829   -1.4939988411    0.5737372735
     C     5.7233761554   -1.3091260183    0.4791266144
     C     6.6106037487   -2.2682419984    0.9376860427
     C     6.1455171892   -3.4495227068    1.5374989028
     C     4.7604150342   -3.6316071474    1.6556733114
     C     3.8783578234   -2.6731558808    1.1795154434
     N     7.0477012789   -4.4178735147    2.0091059648
     C     8.2741422261   -4.0333146457    2.5990348792
     C     9.4494863190   -4.7756478524    2.3004674333
     C    10.6537334422   -4.4228457815    2.8515866527
     C    10.7663039950   -3.3051364991    3.7186049753
     C     9.5886827307   -2.5526498441    4.0127275400
     C     8.3523766240   -2.9492848340    3.4499036228
     C     9.6914958946   -1.4341518987    4.8801187715
     C    10.9025361816   -1.0773719207    5.4241705143
     C    12.0685545889   -1.8209932201    5.1285574367
     C    11.9994598628   -2.9117535021    4.2935850144
     C     6.7025176552   -5.7915959832    1.9811703127
     C     6.1156077120   -6.3519900845    0.8397319130
     C     5.7823763934   -7.7019140987    0.8176721588
     C     6.0455229576   -8.5147659038    1.9200664147
     C     6.6389647719   -7.9596944419    3.0521631356
     C     6.9584936261   -6.6057033684    3.0904894343
     H     4.6841015478    0.2680285339   -1.3643401479
     H     1.3715351420    1.6962034609   -0.0372606273
     H     0.2303026457    3.5330693520   -1.1864497118
     H     1.1223876076    4.4356898868   -3.3221249112
     H     3.1985016388    3.4694913083   -4.2955900994
     H     4.3538236979    1.6157007343   -3.1433937330
     H     6.1255881062   -0.3954598849    0.0511268621
     H     7.6782710792   -2.0964179800    0.8450980005
     H     4.3721125301   -4.5294957973    2.1258855450
     H     2.8110345074   -2.8470163316    1.2894475557
     H     9.3812266860   -5.6207474371    1.6219839697
     H    11.5481944629   -4.9937154178    2.6130211246
     H     7.4574023490   -2.3816367900    3.6910506910
     H     8.7937117803   -0.8633119059    5.1062571203
     H    10.9681009778   -0.2178571830    6.0861720080
     H    13.0194121522   -1.5264998704    5.5644724964
     H    12.8920014310   -3.4890675907    4.0623784516
     H     5.9240263546   -5.7248510160   -0.0262764397
     H     5.3272516001   -8.1235047005   -0.0747946811
     H     5.7909243577   -9.5706384561    1.8958494462
     H     6.8439436081   -8.5799225172    3.9208799567
     H     7.4051046836   -6.1721929704    3.9807333125
