55
-1.3025266766336226e+03 frame 37   xyz file generated by TeraChem
     N     5.5167313804    1.6254274530   -1.7864879545
     C     4.8460086802    1.0525508035   -1.0280739541
     C     4.0858038375    0.3398220718   -0.0437324025
     C     2.7347351222    0.4755278077    0.0159477977
     C     1.8590973971    1.1703622317   -0.9222731447
     C     2.0748773113    1.0957337327   -2.2895277552
     C     1.2030397797    1.7118445621   -3.2073790128
     C     0.0998293042    2.3967778721   -2.7597566305
     C    -0.1714285447    2.5001487735   -1.3722010472
     C     0.7141957462    1.8879904525   -0.4321343895
     C     0.4345355050    2.0404993241    0.9494473376
     C    -0.6747910570    2.7335179866    1.3767065094
     C    -1.5568715654    3.3223140849    0.4451383413
     C    -1.3047509845    3.2096647494   -0.9005087197
     C     4.8652270858   -0.4782718134    0.9056615881
     C     4.2884876082   -1.5803429573    1.5552404943
     C     5.0037788224   -2.3296609401    2.4742239342
     C     6.3349961034   -2.0048461093    2.7860073280
     C     6.9229429222   -0.9144042319    2.1257521467
     C     6.2030889579   -0.1771132251    1.1988187710
     N     7.0596941202   -2.7584544862    3.7188300618
     C     8.4606028105   -2.9254746385    3.5773809403
     C     9.3007707922   -2.7760696341    4.6868177636
     C    10.6736201788   -2.9578966992    4.5537786348
     C    11.2280388432   -3.2731860572    3.3141674613
     C    10.3924395558   -3.4147050505    2.2071437427
     C     9.0166338378   -3.2521472604    2.3349501302
     C     6.4061954764   -3.3727519590    4.8157090495
     C     6.7284985268   -4.6856823071    5.1791203270
     C     6.0988336636   -5.2850252169    6.2652302118
     C     5.1304822849   -4.5937486738    6.9917698024
     C     4.8047271171   -3.2882800153    6.6265877153
     C     5.4422900416   -2.6745120782    5.5532340914
     H     2.2500009673    0.0110261730    0.8718174401
     H     2.9119887317    0.5170263807   -2.6677731032
     H     1.4019743986    1.6245875477   -4.2716954200
     H    -0.5843035764    2.8666493076   -3.4624406294
     H     1.1116608823    1.6199921983    1.6867228118
     H    -0.8693554058    2.8353772846    2.4409600302
     H    -2.4279154057    3.8688547299    0.7960241174
     H    -1.9696304716    3.6672326616   -1.6294496727
     H     3.2739875010   -1.8835766197    1.3110901009
     H     4.5368008088   -3.1905888178    2.9419859786
     H     7.9492564629   -0.6395687188    2.3472884392
     H     6.6860091137    0.6672520036    0.7135482109
     H     8.8716159401   -2.5181742279    5.6508050511
     H    11.3140379981   -2.8389490634    5.4238674077
     H    12.3011308854   -3.4084074184    3.2119881470
     H    10.8106094683   -3.6684720478    1.2365424155
     H     8.3669478902   -3.3797724315    1.4737741255
     H     7.4725850169   -5.2316451734    4.6063353386
     H     6.3593210983   -6.3050498667    6.5355313325
     H     4.6358613556   -5.0670814751    7.8353080262
     H     4.0584846628   -2.7339607465    7.1898297565
     H     5.1969773582   -1.6517193700    5.2817895229
