27
-1.2331316913585301e+03 frame 42   xyz file generated by TeraChem
     N     1.5665702052   -0.4672195392   -1.1876221353
     C     2.6142868609   -0.2162643674   -0.7439161121
     C     3.9042605422    0.0184997088   -0.2097964414
     C     4.7804182864   -1.0859180192    0.0479824522
     N     4.3873584297   -2.3421100764   -0.1958108707
     N     6.0137587816   -0.9217380619    0.5308188973
     C     6.4574139885    0.3102903306    0.7846055198
     C     5.6535266430    1.4770218757    0.5620116769
     C     4.3601569917    1.3101973675    0.0630645765
     C     3.5026489409    2.4923541111   -0.2072451637
     C     3.7705246091    3.2932225515   -1.3231721667
     C     2.9816962385    4.4004829745   -1.6137285615
     C     1.9128666899    4.7266104683   -0.7829287284
     C     1.6344696250    3.9507704913    0.3379414024
     C     2.4277382902    2.8427572723    0.6176499135
    Cl     2.0741675037    1.9078787169    2.0454459497
     C     6.1773953713    2.7567175905    0.8673886009
     N     6.6663105367    3.7789827390    1.1386775774
     N     7.7009208674    0.4209230143    1.2671693527
     H     3.4712195628   -2.5580321292   -0.5589386453
     H     5.0263172514   -3.1008341171   -0.0094843680
     H     4.6044485855    3.0292222998   -1.9674101811
     H     3.2027767866    5.0062918159   -2.4872443134
     H     1.2911467790    5.5901212397   -1.0008952436
     H     0.8100121137    4.2005923332    0.9978947048
     H     8.2465671387   -0.4153267199    1.4146971708
     H     8.1171573273    1.3151332999    1.4793074667
