52
-1.1505664057999752e+03 frame 53   xyz file generated by TeraChem
     O     0.7717502816   -1.0970006969    0.7600666051
     C     1.9293270611   -0.8795504101    0.4364011213
     C     2.4832400355    0.4092627362   -0.1558896489
     N     3.9329686484    0.2089016815   -0.2045052719
     C     4.1587817070   -1.2598399173   -0.2057413277
     N     2.9766207605   -1.7360915888    0.5203037300
     C     4.1556515601   -1.8317295004   -1.6178960140
     C     5.4768228638   -1.4875614808    0.6035650078
     C     5.5355162386   -0.2171508832    1.4200327486
     C     4.6771869796    0.7388005518    0.8709293056
     C     4.6499380026    2.0507560386    1.3724243440
     C     5.4612677792    2.3178285692    2.4856495519
     C     6.2953592683    1.3622739537    3.0754677186
     C     6.3371093928    0.0782475377    2.5067689752
     C     7.1313214809    1.7047452821    4.2474310876
     C     6.6714692971    2.5990244785    5.2258816216
     C     7.4587760058    2.9227045287    6.3269349549
     C     8.7225819444    2.3547533305    6.4788755680
     C     9.1917207075    1.4622827358    5.5165890644
     C     8.4063603912    1.1434670928    4.4127342295
     C     3.8698416244    3.1572379890    0.7655990459
     C     3.1853385921    4.0732157890    1.5764615680
     C     2.4978232021    5.1473998140    1.0176640713
     C     2.4818754782    5.3269891044   -0.3639457622
     C     3.1571515768    4.4219441237   -1.1818610450
     C     3.8431646980    3.3474884637   -0.6241479828
     C     5.4439440038   -2.7628099144    1.4452365598
     C     6.7097441703   -1.5213516181   -0.3146760867
     H     2.2092462656    1.2686314341    0.4568571982
     H     2.0601066954    0.5591942619   -1.1563775429
     H     2.8089615818   -2.7224204788    0.6725162310
     H     3.1930195937   -1.6313862510   -2.0996864875
     H     4.2968113364   -2.9178575150   -1.5845056867
     H     4.9476054369   -1.3927649576   -2.2283422690
     H     5.4744256124    3.3347790650    2.8689359775
     H     6.9752466177   -0.6896930176    2.9375235519
     H     5.6768783240    3.0279642196    5.1337458266
     H     7.0779443232    3.6137742216    7.0746922325
     H     9.3365357764    2.6051543231    7.3399292257
     H    10.1789275464    1.0187973382    5.6189814161
     H     8.7966721957    0.4672831349    3.6563912971
     H     3.1817292441    3.9322163562    2.6544628145
     H     1.9686042517    5.8422121651    1.6647230876
     H     1.9445303063    6.1644247003   -0.8010557212
     H     3.1541674061    4.5553437395   -2.2606893088
     H     4.3686199958    2.6473894667   -1.2678449800
     H     4.6414298003   -2.7363401322    2.1875078482
     H     6.3945378557   -2.8815022795    1.9762368688
     H     5.3098229597   -3.6475380469    0.8106766913
     H     6.7627180075   -0.6346793774   -0.9552707051
     H     6.7098471936   -2.4128463415   -0.9513159001
     H     7.6143556076   -1.5458656538    0.3020179693
