51
-1.5474319990774893e+03 frame 91   xyz file generated by TeraChem
     O     0.4504708849    0.4671442443   -1.7341705669
     C     1.6510778954    0.2848398799   -1.6050538143
     C     2.7423424727    1.3507719711   -1.5891431031
     N     3.9563049761    0.6282310583   -1.2184638478
     C     3.7452210100   -0.7906872745   -1.6014002778
     N     2.2881870568   -0.9052290855   -1.4623679938
     C     4.1427527527   -1.0517016405   -3.0478674326
     C     4.5150420409   -1.6371426581   -0.5307072825
     C     4.5872925879   -0.6515712491    0.6140413049
     C     4.2842536393    0.6303895551    0.1497191543
     C     4.3532978834    1.7297051695    1.0006307563
     C     4.7134631999    1.5181959770    2.3307128175
     C     5.0052147116    0.2380138608    2.8222254106
     C     4.9467559739   -0.8519149576    1.9344013891
     C     5.4005812797    0.0197969814    4.2319246125
     C     6.4795698392   -0.8155182597    4.5407231566
     C     6.8741309938   -1.0611116826    5.8587344792
     C     6.1966301629   -0.4770926190    6.9181672315
     C     5.1067412431    0.3600672266    6.6539708841
     C     4.7232915264    0.6015103002    5.3180664631
     S     3.2978571414    1.6298650462    5.2194615965
     C     3.2145965564    1.7535646501    6.9664202215
     C     4.2418134055    1.0326296901    7.6048408380
     C     4.3083815215    1.0411852800    9.0040604978
     C     3.3686414103    1.7580524257    9.7309330570
     C     2.3541776786    2.4718290843    9.0780890323
     C     2.2675599750    2.4770240595    7.6912982896
     C     3.7934051456   -2.9375425540   -0.1781170760
     C     5.9465386261   -1.9628120406   -0.9857219807
     H     2.5091862643    2.1474039541   -0.8795990415
     H     2.8229530287    1.7974312796   -2.5873459957
     H     1.8001230353   -1.7639294834   -1.6830333686
     H     3.5519224525   -0.4163117162   -3.7155817822
     H     3.9437450253   -2.0960972171   -3.3124743546
     H     5.2009029646   -0.8412027420   -3.2168990271
     H     4.1452482222    2.7347156779    0.6437317400
     H     4.7966672586    2.3770321358    2.9911440446
     H     5.1611010758   -1.8539989714    2.2995472742
     H     7.0340322708   -1.2687047114    3.7231835989
     H     7.7226045797   -1.7120721539    6.0502748016
     H     6.5007162056   -0.6710490422    7.9432606145
     H     5.0934761893    0.4906311734    9.5160142873
     H     3.4195627771    1.7668566536   10.8161231897
     H     1.6254417325    3.0289276879    9.6605460111
     H     1.4816358999    3.0302765938    7.1849648114
     H     2.8081221188   -2.7484205096    0.2571345384
     H     4.3841730475   -3.5029654357    0.5504208667
     H     3.6731237616   -3.5702713229   -1.0659366206
     H     6.4963130834   -1.0608020271   -1.2746661625
     H     5.9471100961   -2.6600380911   -1.8305706369
     H     6.4860026482   -2.4351482969   -0.1579049669
