49
-1.6471893208813099e+03 frame 42   xyz file generated by TeraChem
     C    -4.0420701646    1.1457733753    4.8014506352
     C    -3.4800199409    2.1766359248    4.0498475951
     C    -3.3139218693    2.0254035287    2.6762767786
     C    -3.6867693015    0.8368026172    2.0312816447
     C    -4.2518372857   -0.1898460805    2.7977030802
     C    -4.4308945210   -0.0343027282    4.1717859034
     P    -3.3919481851    0.7698122512    0.2163574145
     C    -1.6721121400    0.1029652863    0.1336929011
     C    -1.1323365287   -0.7665153518    1.0894881822
     C     0.1653494868   -1.2518710840    0.9511535810
     C     0.9401236866   -0.8777186313   -0.1466924556
     C     0.4138411834   -0.0123004142   -1.1030914980
     C    -0.8824503296    0.4799127848   -0.9593206621
     C    -4.3056919146   -0.7571745778   -0.3302093296
     P    -6.1571477338   -0.5693361830   -0.3016825861
     C    -6.3922876908    0.7698228179   -1.5465484530
     C    -6.0508330902    0.6218261514   -2.8975945596
     C    -6.2328222036    1.6726837793   -3.7914026888
     C    -6.7595745303    2.8863177560   -3.3469989743
     C    -7.1056247876    3.0434489567   -2.0076198362
     C    -6.9255872468    1.9884585403   -1.1130040626
     C    -6.6973124914   -2.0434785838   -1.2650825558
     C    -5.8714514419   -3.1327751250   -1.5633775956
     C    -6.3767785572   -4.2414547869   -2.2438439828
     C    -7.7110270220   -4.2769418510   -2.6379759461
     C    -8.5451698908   -3.1982360848   -2.3417499080
     C    -8.0447002600   -2.0974870169   -1.6553148067
     H    -4.1819370112    1.2644370790    5.8726954561
     H    -3.1794721801    3.1033982350    4.5317225178
     H    -2.8884526923    2.8409302963    2.0944485523
     H    -4.5605429733   -1.1202349293    2.3299534627
     H    -4.8738871898   -0.8408559909    4.7504501655
     H    -1.7275388711   -1.0606764341    1.9507339237
     H     0.5735540704   -1.9236923667    1.7021412051
     H     1.9534131063   -1.2565047030   -0.2524957058
     H     1.0146094204    0.2868954996   -1.9581449485
     H    -1.2857993781    1.1654042348   -1.7018343507
     H    -4.0284608425   -1.6227064848    0.2845502552
     H    -3.9564625975   -0.9531974451   -1.3523315892
     H    -5.6474828315   -0.3235819518   -3.2536465860
     H    -5.9651114176    1.5459749626   -4.8374060883
     H    -6.9029448018    3.7056365811   -4.0467409112
     H    -7.5204398182    3.9850739625   -1.6573403156
     H    -7.2037567676    2.1120850010   -0.0686893144
     H    -4.8253182077   -3.1270157882   -1.2713384362
     H    -5.7190431979   -5.0773378840   -2.4688432809
     H    -8.1017210491   -5.1402071001   -3.1701949708
     H    -9.5895482182   -3.2167249852   -2.6428974684
     H    -8.7064154869   -1.2644939199   -1.4252808545
