75
-1.7973809290327495e+03 frame 65   xyz file generated by TeraChem
     C    -4.3155541629    3.5273793234    3.4232890672
     C    -5.2252935548    2.9382882223    2.5464601444
     C    -4.8025120366    1.9897311172    1.6205861273
     C    -3.4574917128    1.6027571682    1.5734330494
     C    -2.5461156707    2.1894591236    2.4600299552
     C    -2.9745266898    3.1501224932    3.3704005788
     N    -3.0182578045    0.6348550382    0.6377513324
     C    -1.8086792408    0.8545864265   -0.0649233943
     C    -0.8858936095   -0.1848968984   -0.2356380039
     C     0.3001319185    0.0390870884   -0.9271174026
     C     0.5931807899    1.3015494984   -1.4411382716
     C    -0.3205239585    2.3392423959   -1.2640439887
     C    -1.5174551132    2.1197234852   -0.5895886956
     C    -3.7728832218   -0.5285779384    0.4111974499
     C    -3.8239203312   -1.1214354477   -0.8584200459
     C    -4.5651215943   -2.2750386422   -1.0649557800
     C    -5.3005794094   -2.8810471538   -0.0327149082
     C    -5.2396888620   -2.2760694260    1.2359754299
     C    -4.4919850751   -1.1329272928    1.4572761320
     C    -6.0707966302   -4.0841087195   -0.3216999317
     C    -6.8990596126   -4.7337492736    0.5222684373
     C    -7.6653867966   -5.9407586874    0.2306451694
     C    -7.5607755892   -6.6633734727   -0.9719035096
     C    -8.3186960820   -7.8022289470   -1.1911386235
     C    -9.2201361125   -8.2739052156   -0.2232922100
     C    -9.3259998232   -7.5600057277    0.9776255072
     C    -8.5624338245   -6.4231200195    1.1988293032
     C   -10.0294351039   -9.4859933799   -0.4594629434
     C    -9.5521658182  -10.5435426854   -1.2390403678
     C   -10.3509164782  -11.6726556409   -1.4285653444
     N   -11.5695847317  -11.7942228295   -0.8912890155
     C   -12.0375472677  -10.7879709781   -0.1451030937
     C   -11.3061948151   -9.6233689586    0.0929092325
     C   -13.3983596376  -10.9514059693    0.4331791505
     C   -14.1366901506  -12.1180704203    0.2104774151
     C   -15.4026226638  -12.2273435270    0.7720240527
     C   -15.8944142082  -11.1735047525    1.5360324368
     C   -15.0847078875  -10.0522757923    1.7010481556
     N   -13.8688816454   -9.9338729809    1.1694317820
     C    -9.8594867129  -12.8134863981   -2.2474158926
     C   -10.6447864987  -13.9564300999   -2.4281208044
     C   -10.1457609396  -14.9967274245   -3.2017732653
     C    -8.8822324908  -14.8679961724   -3.7702935854
     C    -8.1752200353  -13.6916621741   -3.5323512513
     N    -8.6411539979  -12.6858601544   -2.7934390893
     H    -4.6479915579    4.2731969183    4.1399520091
     H    -6.2725797443    3.2283400303    2.5704622814
     H    -5.5122450426    1.5442181124    0.9294759840
     H    -1.5028636352    1.8880769166    2.4322216254
     H    -2.2546676207    3.5955907798    4.0521745614
     H    -1.1031054974   -1.1663467389    0.1759645094
     H     1.0063915001   -0.7779166625   -1.0501904569
     H     1.5239831195    1.4747523065   -1.9739802852
     H    -0.1090994721    3.3271240228   -1.6651363965
     H    -2.2329186131    2.9276366168   -0.4662536450
     H    -3.2811266146   -0.6732618886   -1.6849916594
     H    -4.5916541218   -2.7130413265   -2.0605110306
     H    -5.7692422618   -2.7173447890    2.0759311330
     H    -4.4517286331   -0.7013406361    2.4527242815
     H    -5.9475309984   -4.4630458160   -1.3360662240
     H    -7.0450269066   -4.3394770025    1.5274192342
     H    -6.8785027975   -6.3320138987   -1.7495086996
     H    -8.2255614668   -8.3243518497   -2.1397344955
     H    -9.9941148215   -7.9118704950    1.7589660840
     H    -8.6558266902   -5.8928750246    2.1439537869
     H    -8.5643197868  -10.5198045319   -1.6843106009
     H   -11.7538640548   -8.8362803265    0.6883348335
     H   -13.7124391544  -12.9130566432   -0.3920606897
     H   -15.9967790492  -13.1235088556    0.6144910903
     H   -16.8777854539  -11.2138811806    1.9941999946
     H   -15.4329006973   -9.2060817288    2.2914377828
     H   -11.6229637129  -14.0116677909   -1.9642570089
     H   -10.7356940262  -15.8958874505   -3.3581859338
     H    -8.4511715034  -15.6544983622   -4.3819925554
     H    -7.1829986122  -13.5524490336   -3.9589242099
