26
-5.4006736075238348e+02 frame 38   xyz file generated by TeraChem
     C     1.4014216938    0.0404151283    0.4123948613
     C     0.5937512245   -1.0984951880    0.4179264849
     C    -0.7711180590   -0.9966834125    0.1808484865
     C    -1.3675402498    0.2519953459   -0.0697078566
     C    -0.5402986995    1.3871791408   -0.0704330000
     C     0.8268699069    1.2854039768    0.1669906030
     C    -2.7962468153    0.4297017758   -0.3286132986
     C    -3.7314355299   -0.5377560905   -0.3824444562
     C    -5.1601380351   -0.3600351452   -0.6413526101
     C    -5.7565682919    0.8886938045   -0.8916357835
     C    -7.1214192444    0.9905793170   -1.1287807015
     C    -7.9290691617   -0.1483436275   -1.1235555598
     C    -7.3545340403   -1.3933887334   -0.8783876460
     C    -5.9873779938   -1.4952246000   -0.6409252511
     H     2.4686607395   -0.0444566908    0.5987541722
     H     1.0326151011   -2.0744613186    0.6092878989
     H    -1.3781137656   -1.8978675737    0.1923094643
     H    -0.9834420817    2.3622902889   -0.2617599207
     H     1.4435867384    2.1804376709    0.1599474054
     H    -3.0962002069    1.4645496789   -0.4912005721
     H    -3.4314516232   -1.5725972145   -0.2198773272
     H    -5.1495878667    1.7898890205   -0.9028040681
     H    -7.5602659854    1.9665951317   -1.3199274840
     H    -8.9962976184   -0.0634403086   -1.3099570349
     H    -7.9712581119   -2.2884197252   -0.8715741221
     H    -5.5442478017   -2.4703807429   -0.4498015386
