79
-1.8452169963674496e+03 frame 66   xyz file generated by TeraChem
     C     0.1562562011    0.0832558185   -1.7926094992
     C    -0.7024718095   -0.5739418446   -2.6759993123
     C    -2.0066662612   -0.8704218921   -2.3018516662
     C    -2.4890692865   -0.5188993718   -1.0284642065
     C    -1.6120729754    0.1427276047   -0.1529524930
     C    -0.3057588080    0.4409205474   -0.5281298673
     C    -3.8504008777   -0.8014693443   -0.5749796191
     C    -4.8065919715   -1.4569261875   -1.2612315554
     C    -6.1729148139   -1.7261270080   -0.8166530695
     C    -6.9850240774   -2.5812827055   -1.6109029569
     C    -8.2782849522   -2.8863098540   -1.2628746648
     C    -8.8563407591   -2.3468401585   -0.0893489552
     C    -8.0599177158   -1.4710284854    0.7186550045
     C    -6.7343912773   -1.1848900587    0.3310276440
     C    -8.6171565747   -0.8886609067    1.8933105910
     C    -9.9107066760   -1.1366625542    2.2822615127
     C   -10.6756832612   -1.9993202807    1.4774373773
     C   -10.1844332955   -2.6043581103    0.3367310798
     C   -11.2739738037   -3.4002285475   -0.2231402771
     C   -11.3459312350   -4.0678274579   -1.3516248567
     C   -11.4595966245   -4.7548377083   -2.4743888809
     C   -11.9313337950   -4.0965725539   -3.7240079722
     C   -11.4686193231   -4.5285070596   -4.9744412840
     C   -11.8705625751   -3.8840176492   -6.1414326906
     C   -12.7425221290   -2.7991981429   -6.0798860144
     C   -13.2083001194   -2.3616770958   -4.8401958656
     C   -12.8079019710   -3.0035763266   -3.6736492414
     C   -11.0927204024   -6.2000040500   -2.4903746534
     C    -9.9809515326   -6.6659674784   -1.7765465494
     C    -9.6724475821   -8.0232492901   -1.7487867703
     C   -10.4694150632   -8.9371098709   -2.4358090920
     C   -11.5759792485   -8.4833345940   -3.1524278985
     C   -11.8842256944   -7.1265203738   -3.1829856207
     C   -12.4331114414   -3.2900125689    0.7987369633
     O   -11.9684085878   -2.2893736983    1.7464402457
     C   -12.6745072472   -4.5589155874    1.6126457338
     C   -13.5379468644   -4.4672830057    2.7122509272
     C   -13.7889946873   -5.5775114008    3.5088705008
     C   -13.1850281936   -6.8012087496    3.2145713453
     C   -12.3291450541   -6.8991328423    2.1229801147
     C   -12.0715398569   -5.7816560056    1.3270128044
     C   -13.6984251480   -2.7727531252    0.1336963676
     C   -14.6301967964   -3.6674374891   -0.3993192620
     C   -15.7444036524   -3.1955184650   -1.0895096330
     C   -15.9421767304   -1.8256188136   -1.2490909958
     C   -15.0185444573   -0.9298889954   -0.7128856541
     C   -13.9010353762   -1.3998303487   -0.0272029130
     H     1.1754500948    0.3145348179   -2.0903646556
     H    -0.3522097579   -0.8551023061   -3.6659124176
     H    -2.6574664222   -1.3764477488   -3.0094740902
     H    -1.9672512787    0.4249919785    0.8359366163
     H     0.3518197050    0.9537801844    0.1690660455
     H    -4.0761960795   -0.4351319653    0.4265235057
     H    -4.5721875079   -1.8488353345   -2.2505690664
     H    -6.5626051840   -3.0039777171   -2.5199720684
     H    -8.8702737697   -3.5383087724   -1.8973733480
     H    -6.1596582406   -0.5060570028    0.9565847673
     H    -7.9913856213   -0.2274770919    2.4876314171
     H   -10.3409166693   -0.6906422847    3.1732566791
     H   -10.7806731920   -5.3672103165   -5.0321759435
     H   -11.4963782138   -4.2302175287   -7.1014361499
     H   -13.0590541165   -2.2989882979   -6.9913118125
     H   -13.8936310051   -1.5200346799   -4.7801939956
     H   -13.1794704885   -2.6636265062   -2.7108419572
     H    -9.3509103437   -5.9536712056   -1.2495941864
     H    -8.8025697490   -8.3656432521   -1.1943775476
     H   -10.2281233862   -9.9965350933   -2.4160705138
     H   -12.2054256360   -9.1891709872   -3.6881398817
     H   -12.7509337388   -6.7799894381   -3.7391012322
     H   -14.0106055133   -3.5161214450    2.9425910225
     H   -14.4591198610   -5.4898422256    4.3600849112
     H   -13.3826335612   -7.6711784648    3.8353106555
     H   -11.8514553788   -7.8459422328    1.8846904347
     H   -11.3953812715   -5.8719677927    0.4830763852
     H   -14.4851424868   -4.7368418919   -0.2748490214
     H   -16.4608821061   -3.9025410862   -1.4993027073
     H   -16.8135222502   -1.4575148468   -1.7841239672
     H   -15.1674313665    0.1407759842   -0.8264262048
     H   -13.1856169613   -0.6982947963    0.3905656490
