26
-6.1505978726640797e+02 frame 9   xyz file generated by TeraChem
     C    -3.5123351973   -0.0197799910    0.0016298713
     C    -2.8288319665    1.1926354517    0.0017701160
     C    -1.4277977413    1.2233993725    0.0006994273
     C    -0.6888812227    2.4536560487    0.0008089596
     C     0.6704778146    2.4601746936   -0.0002411841
     C     1.4212256628    1.2371316470   -0.0014965898
     C     0.7144590379    0.0008222358   -0.0016323441
     C    -0.7090251095   -0.0060046304   -0.0005300900
     C    -1.4160129573   -1.2423073368   -0.0006695757
     C    -2.8173018473   -1.2255982630    0.0004294380
     C    -0.6652209563   -2.4653112685   -0.0019327089
     C     0.6941414292   -2.4582772740   -0.0029789904
     C     1.4335510892   -1.2283411072   -0.0028609240
     C     2.8346391881   -1.1977174632   -0.0039234027
     C     3.5184725625    0.0145291114   -0.0037855710
     C     2.8225156968    1.2198477045   -0.0025957693
     H    -4.5990603686   -0.0250247773    0.0024725259
     H    -3.3782320207    2.1310696568    0.0027103231
     H    -1.2447917899    3.3883930398    0.0017531862
     H     1.2173140373    3.4002398597   -0.0001386206
     H    -3.3574514036   -2.1694110189    0.0003166235
     H    -1.2118997684   -3.4054784633   -0.0020417829
     H     1.2500413337   -3.3929983265   -0.0039291085
     H     3.3839196565   -2.1362197285   -0.0048536869
     H     4.6052152274    0.0199877569   -0.0046228733
     H     3.3624895384    2.1637331224   -0.0024872486
