10
-4.9641075541585082e+02 frame 7   xyz file generated by TeraChem
     P     1.1550032267   -0.0141031212   -0.1245452232
     C    -0.0846962299    1.2851241569    0.0441470874
     C    -1.3247446689    0.7402608394    0.0038472647
     C    -1.3399072904   -0.7147016955    0.0094155806
     C    -0.1116784218   -1.2854037466    0.0540297200
     H     1.7766392817   -0.0155772782    1.1510734786
     H     0.1347560888    2.3471332719    0.0306864255
     H    -2.2416625917    1.3241701113   -0.0299212702
     H    -2.2688529473   -1.2795490659   -0.0200170638
     H     0.0852735422   -2.3518834769    0.0487239960
