60
-2.2452882333128282e+03 frame 85   xyz file generated by TeraChem
     O    -1.1665563995    1.2112377926    5.0654897105
     C    -1.9777338875    0.9720688430    4.0095318580
     C    -3.1442964861    1.7057036023    3.7726506992
     C    -3.9387917264    1.4064777006    2.6728816006
     C    -3.5688647903    0.3780156507    1.8124735369
     C    -2.4037814938   -0.3515482382    2.0398601798
     C    -1.6085290418   -0.0577208857    3.1376765409
     N    -4.3815131484    0.0803534441    0.6733321516
     C    -5.3488052396   -0.8860933293    0.6947722528
     S    -5.7653697382   -1.8511497805    1.9703667920
     S    -6.1284736103   -0.9778734216   -0.8566870705
     C    -5.1381079418    0.3183543966   -1.5456330195
     C    -5.3529020440    0.6968264094   -2.8391594824
     C    -4.7837535852    1.6782618936   -3.7293342682
     C    -5.3491861314    1.7303611215   -5.0280414095
     C    -4.9088359416    2.6221500093   -5.9814469667
     C    -3.8642869359    3.5184058379   -5.6782124270
     C    -3.2937094716    3.4731876955   -4.3931870514
     C    -3.7367213649    2.5789497431   -3.4367740059
     N    -3.3361532463    4.4653380407   -6.5568400343
     N    -3.9017927462    4.4584428590   -7.7057394625
     C    -3.5097610074    5.3174743169   -8.6741926274
     C    -2.5422984166    6.3197142748   -8.7322674270
     N    -2.3858176876    7.0263418762   -9.8838224845
     C    -3.1562646174    6.8089657163  -11.0902376665
     C    -1.3828764880    8.0004719922   -9.7644883718
     C    -0.8451680029    7.9318691938   -8.4807329474
     C    -1.5438999528    6.8422423242   -7.7004058429
     C    -2.2571243682    7.4377007491   -6.4748332336
     C    -0.5397813139    5.7552878129   -7.2828752864
     C     0.1720857923    8.7935191780   -8.1076740659
     C     0.6413196735    9.7268572992   -9.0383836272
     C     0.0906551256    9.7847515242  -10.3179023651
     C    -0.9352591203    8.9196121091  -10.7057819775
     C    -4.1961552636    0.7982928906   -0.5293093487
     O    -3.3533427441    1.6729253668   -0.6135913615
     H    -1.5279932429    1.9362208563    5.5984061599
     H    -3.4283101346    2.5073222311    4.4504523261
     H    -4.8477164079    1.9700637513    2.4837701557
     H    -2.1255280142   -1.1496334552    1.3578012361
     H    -0.6990783930   -0.6171754624    3.3338860734
     H    -6.1472093144    0.1271005223   -3.3232020702
     H    -6.1564015798    1.0445983507   -5.2763645036
     H    -5.3551552992    2.6475553718   -6.9693852433
     H    -2.4873229783    4.1646575861   -4.1636760724
     H    -3.2830073611    2.5641885118   -2.4537646269
     H    -4.0930032612    5.1719361168   -9.5777752530
     H    -3.0341560886    5.7786805422  -11.4386452229
     H    -2.8068990753    7.4843346618  -11.8692284969
     H    -4.2182804858    7.0008513469  -10.9063427176
     H    -2.9659900799    8.2160337090   -6.7746605179
     H    -1.5086804027    7.8893502465   -5.8147693407
     H    -2.7839911756    6.6527300780   -5.9293639710
     H    -0.0193013238    5.3458972996   -8.1547869348
     H    -1.0548991013    4.9503839263   -6.7551483372
     H     0.2058464667    6.1991015690   -6.6141037586
     H     0.5995937146    8.7483205575   -7.1089887263
     H     1.4389096387   10.4105550167   -8.7620755114
     H     0.4615014139   10.5145726600  -11.0322564741
     H    -1.3528212910    8.9801302856  -11.7055386346
