44
-1.2738802183411267e+03 frame 50   xyz file generated by TeraChem
     O     0.7756256272    0.6560934453   -0.9122863553
     C     2.0759105771    0.5999086709   -0.5278444617
     C     2.7984332793   -0.6014581048   -0.5465189668
     C     2.2654171348   -1.8680644956   -0.9116338220
     C     0.9823365298   -2.4026552395   -0.6718262719
     C     0.6056680788   -3.6183703513   -1.3296623077
     C    -0.6174949783   -4.2064119495   -1.1359120477
     C    -1.5400052854   -3.6169895058   -0.2504001059
     C    -1.1959335980   -2.4514446663    0.4521769433
     C     0.0312173580   -1.8625460894    0.2550503019
     N    -2.8065768916   -4.2164588371   -0.0453874294
     O    -3.0760456076   -5.2596419599   -0.6545405534
     O    -3.6038525087   -3.6794433347    0.7343581587
     C     4.2318347810   -0.5106261433   -0.2745608902
     N     4.9460579550   -1.6186256537   -0.2777021635
     C     6.2819162988   -1.5738369911   -0.0663196411
     C     7.0400278875   -2.7660175300   -0.0818157042
     C     8.4019471679   -2.7208039018    0.1120458375
     C     9.0513275002   -1.4858357374    0.3306352495
     C     8.3437607597   -0.3027439321    0.3593770118
     C     6.9532206028   -0.3447038735    0.1669415791
     N     6.1802100133    0.7736691220    0.2020188707
     C     4.8367312050    0.7741918083    0.0266349748
     C     4.0574953555    1.9451341892    0.1240689427
     C     2.6587951244    1.8396042040   -0.1774984127
     C     1.8747450211    3.0254340986   -0.1557732271
     C     2.4307613186    4.2346273762    0.1743088695
     C     3.8071604387    4.3338764512    0.4971643286
     C     4.5970155427    3.2146884752    0.4678823391
     H     0.5306377356   -0.1979577148   -1.3065136062
     H     2.9739762451   -2.5468630945   -1.3790151819
     H     1.3158420763   -4.0749015120   -2.0148343821
     H    -0.8892241905   -5.1180533705   -1.6564334985
     H    -1.8999690757   -2.0378887631    1.1656701712
     H     0.2979181150   -0.9971392725    0.8522464693
     H     6.5153117405   -3.7000794994   -0.2573137332
     H     8.9851319779   -3.6362720178    0.0953979450
     H    10.1267803029   -1.4661202243    0.4804879659
     H     8.8378864510    0.6499010500    0.5299281966
     H     6.6488997183    1.6575793507    0.3739743025
     H     0.8201357091    2.9524293736   -0.3970105534
     H     1.8099244152    5.1261124453    0.1952754398
     H     4.2340297412    5.2947230711    0.7680112847
     H     5.6482001295    3.3151488780    0.7243173178
