47
-1.1804293766082701e+03 frame 63   xyz file generated by TeraChem
     O     3.3106492578    3.3573217914   -2.0231222337
     C     3.9278811645    2.6922588990   -0.9308907108
     C     2.8011275164    2.1055229602   -0.0954084470
     C     1.9837704406    3.1952198082    0.5934868630
     N     0.8482843178    2.5953219051    1.2545576735
     C     0.1850883285    3.1627711737    2.2811072219
     N     0.6688151889    4.3106660900    2.7896983020
     C     0.0571950954    4.8455831368    3.8527897344
     N    -0.9976637983    4.3932866676    4.5171599304
     C    -1.4726811437    3.2562901816    3.9849767603
     C    -0.9795017524    2.5820202598    2.8545540436
     C    -1.8024286129    1.4208604073    2.6527335857
     C    -1.6431272514    0.3871450548    1.6126186130
     C    -1.4559206087   -0.9592112888    1.9571479113
     C    -1.2973628562   -1.9292629700    0.9723712222
     C    -1.3107136662   -1.5722776392   -0.3756557585
     C    -1.4924351951   -0.2378551319   -0.7319653591
     C    -1.6654378778    0.7325460966    0.2530232347
     C    -2.7515385097    1.4382062594    3.6651239092
     N    -2.5262344155    2.5442575357    4.4626638488
     C    -3.8604453906    0.5298316458    3.9699976355
     C    -4.2161232582    0.2707534334    5.3027704079
     C    -5.2783556373   -0.5764440299    5.6023936094
     C    -6.0014812214   -1.1840864992    4.5779031808
     C    -5.6577039854   -0.9317348450    3.2501385066
     C    -4.6017481207   -0.0796414093    2.9464163013
     O     1.9734464980    1.2997616306   -0.9183136706
     H     3.9684932489    3.4685082810   -2.7224660883
     H     4.5361716640    3.3816160136   -0.3278042882
     H     4.5720138115    1.8764628110   -1.2833046998
     H     3.2222272949    1.4416363592    0.6680995359
     H     1.6624364847    3.9434460195   -0.1458035335
     H     2.5977174943    3.7110900935    1.3366511374
     H     0.4346358314    1.7972945856    0.7888817448
     H     0.4911959366    5.7753764847    4.2195582998
     H    -1.4277325562   -1.2386294624    3.0069745025
     H    -1.1518301578   -2.9676834709    1.2589308681
     H    -1.1787519123   -2.3300465662   -1.1433054334
     H    -1.5093211823    0.0502602857   -1.7798287311
     H    -1.8332957101    1.7693628695   -0.0305582485
     H    -3.1258840183    2.8500109490    5.2162910700
     H    -3.6426839739    0.7177923988    6.1113767554
     H    -5.5354106202   -0.7681493933    6.6408391040
     H    -6.8292404348   -1.8480494831    4.8120176271
     H    -6.2228824379   -1.3925104324    2.4441826141
     H    -4.3544131963    0.1289479224    1.9101358958
     H     1.8603756610    1.8199188503   -1.7334030213
