69
-1.5045688644193065e+03 frame 251   xyz file generated by TeraChem
     O     0.9310431995   -3.4225096839    0.3859590034
     C     1.5353987863   -3.3033940284   -0.8814115818
     C     2.5457238762   -2.1626696260   -0.9684408960
     N     3.7036347371   -2.3439496825   -0.1113394850
     C     4.8661746001   -2.8624744325   -0.8157684870
     C     5.9756815477   -3.2443930757    0.1044428753
     C     6.0942506306   -2.7268954868    1.3418574553
     C     5.0449738812   -1.8255635466    1.8416581898
     C     3.8353208440   -1.7003538097    1.0999487302
     C     2.7919889367   -0.9426976009    1.6655510382
     C     2.9641749659   -0.2730610154    2.8720050179
     C     4.1695591694   -0.3389491565    3.5658340634
     C     5.1899473414   -1.1274188953    3.0433236760
     C     7.2098375398   -3.0964056677    2.2207729747
     C     8.4752116594   -3.2857684355    1.7990141460
     C     9.6175683459   -3.6942391073    2.6110964994
     C     9.5110065912   -4.0861239256    3.9610680663
     C    10.6247781739   -4.4441171660    4.6975419601
     C    11.9038933321   -4.4259340419    4.1108769028
     C    12.0183494343   -4.0640945960    2.7625508895
     C    10.8970645424   -3.7016307195    2.0308076200
     N    13.0983622734   -4.7549207667    4.7725250955
     N    12.9695928860   -4.8768426490    6.0369204088
     C    14.0562201210   -5.2131421158    6.7877489025
     C    15.2789515018   -5.8094596597    6.5378791240
     N    15.7341507859   -6.5124155670    5.4631572764
     C    14.9223726757   -7.0367804917    4.3873312504
     C    17.0509284937   -6.9559186857    5.6794110667
     C    17.4854809943   -6.5389434004    6.9374915803
     C    16.3704910642   -5.7843609419    7.6163967800
     C    16.7786170400   -4.3406834741    7.9420374532
     C    15.9188654929   -6.5104980472    8.8943811289
     C    18.7598517326   -6.8561642380    7.3761393266
     C    19.5998715998   -7.5950888078    6.5363079923
     C    19.1506628216   -8.0108636627    5.2834896693
     C    17.8645608194   -7.7023115639    4.8338421740
     I    -1.3632495577   -0.5919063234    0.1878204219
     H     0.3035375851   -2.6771142475    0.4668259351
     H     0.7840383116   -3.1631512295   -1.6747982396
     H     2.0458595990   -4.2544746071   -1.0769449019
     H     2.0484227684   -1.2117155201   -0.7518826486
     H     2.9009448800   -2.0894656532   -2.0057455596
     H     5.2220399160   -2.1245088878   -1.5653868276
     H     4.5521116645   -3.7407139563   -1.3959955924
     H     6.7039473619   -3.9611633854   -0.2660577591
     H     1.8244245489   -0.8918679855    1.1791354878
     H     2.1345177221    0.3088152735    3.2668147191
     H     4.3082730259    0.1963387201    4.5006578290
     H     6.1333737581   -1.2046314024    3.5775598623
     H     6.9722314194   -3.2137739598    3.2772530295
     H     8.6997264274   -3.0948803352    0.7492436768
     H     8.5344183447   -4.1195213226    4.4367030969
     H    10.5283126841   -4.7489747685    5.7344104890
     H    13.0049212272   -4.0603266362    2.3062774875
     H    11.0064321819   -3.4119777721    0.9879773347
     H    13.9075883648   -4.9429522448    7.8304474953
     H    14.3556667320   -7.9108444935    4.7304059195
     H    14.2226017373   -6.2613380797    4.0607557276
     H    15.5659902965   -7.3290756584    3.5572143642
     H    17.1116283797   -3.8124478276    7.0430050220
     H    17.5988768292   -4.3416858022    8.6682647325
     H    15.9357142496   -3.7919694913    8.3750099125
     H    15.6032933383   -7.5356677999    8.6768420785
     H    15.0873177143   -5.9805178693    9.3696252346
     H    16.7504637091   -6.5466173575    9.6063687765
     H    19.1025511336   -6.5365972107    8.3574044130
     H    20.6045440192   -7.8485900420    6.8624327083
     H    19.8083853592   -8.5889918655    4.6400509359
     H    17.5291250184   -8.0414947410    3.8591075284
