59
-1.2401231114194666e+03 frame 90   xyz file generated by TeraChem
     O     0.7443775774    1.8298172151    2.0218248391
     C     1.9926991421    1.5388779264    1.6302334568
     O     2.8393536655    2.4036159578    1.6543856358
     C     2.2146813966    0.1294609546    1.1314244041
     C     3.6821388262   -0.2409561725    0.9418315171
     N     4.2826484085   -0.8751310496    2.1111356765
     C     4.1669367768   -2.1769402387    2.4226910807
     C     3.4100363449   -3.0656337119    1.6426092242
     C     3.2590953510   -4.4101469066    1.9174197952
     C     2.4962821629   -5.3526545442    1.1806909042
     C     1.7549619209   -5.0346601519    0.0130099105
     C     1.0193342424   -5.9833465511   -0.6490407963
     C     0.9725334876   -7.3313690677   -0.1864553169
     C     1.7249229967   -7.6612504403    0.9757739009
     C     2.4534982286   -6.6975360957    1.6277652120
     N     0.2407382261   -8.2584161542   -0.8285766585
     C     0.2106854078   -9.6725044076   -0.4584073123
     C    -0.5227468680  -10.3324008346   -1.6227460734
     C    -1.4732576722   -9.2365245694   -2.1002409759
     C    -0.6384287968   -7.9669591153   -1.9614135731
     C     4.9606210556   -2.4611772533    3.6970506419
     C     5.5125010281   -1.0917880383    4.0127096996
     C     5.0778992352   -0.1852233338    3.0502708676
     C     5.4228590779    1.1599160504    3.0802955482
     C     6.2447684190    1.5769470191    4.1282331311
     C     6.6947452482    0.6811178082    5.0994373980
     C     6.3272684582   -0.6661890065    5.0489408446
     C     6.1185083368   -3.4436810199    3.4422280228
     C     4.0545044036   -2.9364351293    4.8466306085
     I     1.8996774509   -1.6860048015   -2.4310562704
     H     0.1641687180    1.0543202612    1.9428623395
     H     1.7143168930    0.0442849808    0.1546668120
     H     1.7076137050   -0.5841463062    1.7915308918
     H     4.2666007528    0.6510618842    0.7113075891
     H     3.7825037373   -0.9217209110    0.0927558632
     H     2.9117017825   -2.6587143750    0.7665371557
     H     3.7601824577   -4.8201226523    2.7897634127
     H     1.7679867935   -4.0238569898   -0.3892317229
     H     0.4778677906   -5.7003262903   -1.5452521894
     H     1.7122780221   -8.6747061426    1.3610997901
     H     3.0135430535   -6.9709188733    2.5194811799
     H    -0.3298507775   -9.8065677171    0.4894283578
     H     1.2270136561  -10.0586793923   -0.3266313881
     H    -1.0353466719  -11.2487884280   -1.3189459826
     H     0.1905068936  -10.5868245026   -2.4151061739
     H    -2.3478043498   -9.1796040741   -1.4420141146
     H    -1.8265321537   -9.3851766926   -3.1238811853
     H    -1.2475238183   -7.0807280774   -1.7568096518
     H    -0.0435824418   -7.7713201447   -2.8644837516
     H     5.0478467197    1.8657241529    2.3476310689
     H     6.5328855580    2.6227126301    4.1866748353
     H     7.3329166990    1.0352268759    5.9039007679
     H     6.6737170857   -1.3637973273    5.8072910125
     H     6.7428391537   -3.1030697222    2.6106854511
     H     5.7606314489   -4.4518342188    3.2183834849
     H     6.7409881077   -3.4959484451    4.3411187254
     H     3.2311898815   -2.2345416488    5.0110866762
     H     4.6479837434   -2.9929299286    5.7647506343
     H     3.6334825003   -3.9265159686    4.6538229774
