49
-1.2063030207914226e+03 frame 44   xyz file generated by TeraChem
     O     3.1418315822    1.6688914649   -1.3991041783
     C     3.7120973803    0.5285932108   -1.0243998928
     C     3.0933989526   -0.2277504431   -0.0223312080
     C     3.5075025829   -1.4948428300    0.5714345973
     O     4.4931793786   -2.1850765420    0.3335193678
     C     2.4599597578   -1.8274662963    1.5935358206
     C     1.4887862255   -0.8213850562    1.6097862638
     C     1.8646285687    0.2038587448    0.6008255166
     O     1.2346210811    1.2440456315    0.3460672914
     C     0.4040660535   -0.8791989628    2.4699775838
     C     0.3106295851   -1.9816114770    3.3255552702
     C     1.2806135543   -2.9873099250    3.3099923311
     C     2.3730841572   -2.9205157546    2.4385902759
     C     4.9217917685    0.1424167739   -1.6687712107
     C     5.4999931326    0.9019962525   -2.6456878437
     C     6.7027794232    0.6225226766   -3.3700650488
     C     7.1478809646    1.5358333111   -4.3477813906
     C     8.2848280063    1.3270029001   -5.1011379230
     C     8.7271600213    2.3111655650   -6.1498103715
     C    10.2468044340    2.3100254463   -6.2502793474
     C    10.7345927089    0.9016976803   -6.5361402074
     N    10.1980360739   -0.0704512969   -5.5943605270
     C     9.0659266673    0.1583784749   -4.8729613103
     C     8.6448224896   -0.7716458532   -3.8746315499
     C     7.4870570401   -0.5339753464   -3.1674233941
     C     9.4745580243   -2.0026895673   -3.6318650191
     C    10.1279481099   -2.4482169695   -4.9332536095
     C    10.9565768092   -1.3094695198   -5.4976827582
     H     2.3133327792    1.7831680229   -0.8511154591
     H    -0.3462193494   -0.0935055720    2.4777945169
     H    -0.5271488477   -2.0590075466    4.0130796461
     H     1.1828684272   -3.8323475969    3.9860978385
     H     3.1317756390   -3.6980831405    2.4213277973
     H     5.3472614843   -0.7958874558   -1.3291305269
     H     4.9959129271    1.8301109323   -2.9149807004
     H     6.5668304358    2.4399603054   -4.5240577419
     H     8.3024711760    2.0405875889   -7.1278592254
     H     8.3468139138    3.3097392117   -5.9084035762
     H    10.5925541490    2.9757421966   -7.0476706115
     H    10.6823537421    2.6665566050   -5.3086108985
     H    11.8286892481    0.8574364026   -6.4691143253
     H    10.4630241606    0.6065311555   -7.5615508042
     H     7.1826579635   -1.2683605162   -2.4253150815
     H     8.8500102185   -2.7962679477   -3.2078660596
     H    10.2605389928   -1.7887378963   -2.8925023200
     H    10.7750382893   -3.3170984243   -4.7758826563
     H     9.3560387289   -2.7361866214   -5.6577490812
     H    11.3095302071   -1.5597822085   -6.5059601452
     H    11.8503281748   -1.1441799032   -4.8763461871
