35
-9.3218648933755003e+02 frame 35   xyz file generated by TeraChem
     O     1.2805822712    0.2541330020   -1.5237585103
     C     2.3611670468    0.0894325605   -0.9689605657
     N     3.1658929067    1.1461045095   -0.5962343631
     C     4.3966843650    1.0517855127    0.0357364335
     C     4.8913976588   -0.1733619984    0.3354157358
     N     4.1368026968   -1.2807949095    0.0057949198
     C     2.9236070602   -1.2072579897   -0.6291327155
     C     2.4936982845   -2.5091108979   -0.8017932184
     C     3.5167328989   -3.2994070730   -0.2428158619
     N     4.5120427000   -2.5343069385    0.2451858661
     C     3.5982200304   -4.7623414271   -0.1585038135
     C     2.5170929282   -5.5640034194   -0.5474478285
     C     2.6013337986   -6.9507126464   -0.4729004184
     C     3.7652700783   -7.5599243875   -0.0073133321
     C     4.8454135340   -6.7696901083    0.3846364489
     C     4.7644201448   -5.3838648293    0.3096681974
     C     5.1246017893    2.3000800656    0.3166092883
     C     5.0373220395    3.3920981102   -0.5580608054
     C     5.7415719991    4.5628970658   -0.2949661357
     C     6.5444868940    4.6596545831    0.8393416597
     C     6.6360345948    3.5777299701    1.7142275665
     C     5.9270131560    2.4090354874    1.4606771703
     H     2.7726771822    2.0652871875   -0.7628066254
     H     5.8560748485   -0.3571117315    0.7851887329
     H     1.5751163237   -2.8229855409   -1.2748532281
     H     1.6010001647   -5.1033694792   -0.9069246421
     H     1.7528038789   -7.5570724032   -0.7787032164
     H     3.8300425760   -8.6431822423    0.0502806049
     H     5.7576924488   -7.2352999485    0.7484172323
     H     5.6077259701   -4.7697398134    0.6106462373
     H     4.4419489122    3.3211399645   -1.4649111403
     H     5.6687045648    5.3983713943   -0.9857523440
     H     7.0938733334    5.5746413362    1.0430498461
     H     7.2513847000    3.6486084469    2.6069038642
     H     5.9761000004    1.5815398288    2.1629867312
