27
-8.1840761678746730e+02 frame 32   xyz file generated by TeraChem
     O    -2.0862459452    0.5395024362    0.5692617332
     C    -0.9064353218    0.5223560806    0.3353717613
     O    -0.1199205028    1.6528668533    0.5349217181
     C     1.1555706151    1.3065176879    0.1751555407
     N     1.3036458169    0.0929858334   -0.2343437532
     C     0.0399711581   -0.4898533698   -0.1645593780
     C    -0.1588433124   -1.7907038750   -0.5238818684
     C    -1.3098760042   -2.6165068685   -0.5392886802
     C    -1.4101988077   -3.9403150744   -0.9229315067
     C    -2.7626973931   -4.3135622787   -0.7518795377
     C    -3.3963876324   -3.1991535633   -0.2771099700
     O    -2.5381818487   -2.1719757349   -0.1440677675
     C     2.1830566462    2.3278013747    0.2959468341
     C     1.8687562275    3.6088467622    0.7680401885
     C     2.8682154631    4.5689673621    0.8809595058
     C     4.1799775775    4.2600883508    0.5249199103
     C     4.4947074369    2.9842030342    0.0529915949
     C     3.5035385820    2.0198656324   -0.0624333978
     H     0.7372470742   -2.3057083196   -0.8639560412
     H    -0.5939425829   -4.5533446883   -1.2816099791
     H    -3.2151304369   -5.2750885748   -0.9506945879
     H    -4.4203289536   -2.9942356203    0.0012695606
     H     0.8463184957    3.8461703358    1.0443514483
     H     2.6219417201    5.5613114641    1.2480020388
     H     4.9586407564    5.0126752017    0.6146942690
     H     5.5168918271    2.7428474642   -0.2247351541
     H     3.7365873755    1.0241512716   -0.4270940059
