30
-8.2060739036719087e+02 frame 88   xyz file generated by TeraChem
     O    -1.5707714321   -0.0019066764    1.8126834245
     C    -0.6014274403    0.2094785440    1.1269629178
     O     0.1671996521    1.3430261721    1.3243101174
     C     1.1753909021    1.2946899181    0.3940301910
     N     1.1592452997    0.2671740698   -0.3807839397
     C     0.0555371975   -0.4953457336    0.0077834999
     C    -0.2317173727   -1.6644520155   -0.6300483396
     C    -1.2687683529   -2.6641796988   -0.4881817576
     C    -1.1929981671   -3.7670741983   -1.3643803108
     C    -2.1344291117   -4.7854115280   -1.3200175428
     C    -3.1784382586   -4.7239098966   -0.3975271278
     C    -3.2696066352   -3.6394308777    0.4761927430
     C    -2.3300634173   -2.6177818563    0.4379443450
     C     2.1323661903    2.3886306321    0.3881811771
     C     2.0199396334    3.4510182778    1.2943750106
     C     2.9499240805    4.4846066642    1.2651011900
     C     3.9911604406    4.4647288064    0.3386694305
     C     4.1041386735    3.4062264965   -0.5648538750
     C     3.1806549954    2.3709015003   -0.5432059158
     H     0.4858921541   -1.8835980470   -1.4203987593
     H    -0.3793714190   -3.8138670333   -2.0840658682
     H    -2.0559142263   -5.6258271589   -2.0039707723
     H    -3.9190545493   -5.5182465336   -0.3591481570
     H    -4.0829103695   -3.5897551316    1.1951302656
     H    -2.4092777844   -1.7801678532    1.1207785482
     H     1.2081245484    3.4640321339    2.0146175919
     H     2.8612448024    5.3079015014    1.9681861298
     H     4.7159087698    5.2741046004    0.3192052345
     H     4.9154192410    3.3900685508   -1.2871003213
     H     3.2571581864    1.5419434464   -1.2400564779
