47
-1.2761887728304546e+03 frame 45   xyz file generated by TeraChem
     O    -1.4818964288    0.6716312951   -0.5454330727
     C    -0.5024851981    0.4861205393    0.1346024868
     O     0.4208288011    1.4969661739    0.3278637202
     C     1.3968366205    0.9816515185    1.1428386167
     N     1.2232832305   -0.2437703554    1.4987508762
     C     0.0312036611   -0.6564527041    0.9015832059
     C    -0.4285796151   -1.9280072653    1.0858704518
     C    -1.5887636908   -2.6512785623    0.6254723902
     C    -2.6141957208   -2.1294910304   -0.1942231081
     C    -3.6839086412   -2.9164570204   -0.5738750244
     C    -3.7924820750   -4.2595461722   -0.1615684635
     C    -2.7722891867   -4.7790664609    0.6550014613
     C    -1.6989259378   -3.9957855236    1.0384426733
     C    -4.8985312138   -5.1265380992   -0.5348215905
     C    -5.9455906396   -4.7985403437   -1.3188593575
     C    -7.0053889075   -5.7276495528   -1.6393295397
     N    -7.1049033242   -6.9811871678   -1.2293120104
     C    -8.2696819449   -7.4491929892   -1.7894557202
     C    -8.8879575417   -6.4364036564   -2.5629603343
     N    -8.0537639695   -5.3561850575   -2.4426899790
     C   -10.0874018342   -6.6367353701   -3.2456018347
     C   -10.6635006708   -7.8952994276   -3.1344111383
     C   -10.0648512462   -8.9165169286   -2.3695137488
     C    -8.8718098997   -8.7112533961   -1.6928595084
     C     2.4953195017    1.8615140277    1.5039245334
     C     2.5414313122    3.1820820907    1.0382393003
     C     3.6032949543    4.0047653340    1.3975428486
     C     4.6195164165    3.5186567685    2.2184692383
     C     4.5747476058    2.2028413925    2.6834803795
     C     3.5189879119    1.3746858623    2.3298570277
     H     0.2351747059   -2.5150352205    1.7199072705
     H    -2.5597368652   -1.0997712580   -0.5272753067
     H    -4.4531633458   -2.4782252859   -1.2032563521
     H    -2.8326401673   -5.8125634735    0.9870619810
     H    -0.9228509325   -4.4211030744    1.6700098252
     H    -4.8656886579   -6.1391278401   -0.1352826176
     H    -6.0376892750   -3.8048735508   -1.7513731279
     H    -8.1800218430   -4.4470922722   -2.8664351504
     H   -10.5482535124   -5.8491355936   -3.8347110311
     H   -11.5986712763   -8.0975657180   -3.6493997665
     H   -10.5526917579   -9.8857491717   -2.3110400428
     H    -8.4105340037   -9.4983105120   -1.1028984069
     H     1.7487195133    3.5583957275    0.3995458389
     H     3.6371784809    5.0283667545    1.0354681443
     H     5.4477503979    4.1645928509    2.4969050442
     H     5.3666369473    1.8235566063    3.3231080092
     H     3.4733710284    0.3496060562    2.6845597128
