42
-1.0317440708761803e+03 frame 61   xyz file generated by TeraChem
     O    -1.9040898828    0.3122974222   -0.9148417436
     C    -0.7140112971    0.3238731818   -0.6994482024
     O     0.0504412502    1.4655591122   -0.9181603370
     C     1.3373270119    1.1341589222   -0.5764166271
     N     1.5030908014   -0.0781671266   -0.1650845686
     C     0.2442055327   -0.6660480277   -0.2131785529
     C    -0.0135640946   -1.9654568470    0.1390150639
     C    -1.2761810912   -2.6063721709    0.1048479032
     C    -1.4096818053   -3.9173620239    0.4704523069
     C    -2.6091792382   -4.7067954697    0.4873406899
     C    -3.8826983663   -4.2099158550    0.1333497777
     C    -5.0068785977   -5.0057344579    0.1612199080
     C    -4.9307012581   -6.3706449710    0.5489727644
     C    -3.6548803522   -6.8753735990    0.9055757477
     C    -2.5412591938   -6.0615974657    0.8731046129
     N    -6.0388155491   -7.1599660628    0.5767330168
     C    -7.3323790053   -6.6167443893    0.2159417848
     C    -5.9311601156   -8.5487119634    0.9743682040
     C     2.3511447371    2.1664852156   -0.7159325477
     C     2.0199459192    3.4390115244   -1.2001048232
     C     3.0070293600    4.4098669499   -1.3306055099
     C     4.3249587445    4.1218543170   -0.9799683828
     C     4.6570419140    2.8548985765   -0.4959336463
     C     3.6782752692    1.8800305780   -0.3633133817
     H     0.8434973415   -2.5501228476    0.4731701737
     H    -2.1338871568   -2.0260355630   -0.2239172816
     H    -0.5044442840   -4.4394975824    0.7854966862
     H    -3.9925961080   -3.1723288734   -0.1702298520
     H    -5.9602609555   -4.5733600211   -0.1205251271
     H    -3.5421490742   -7.9096723391    1.2094736113
     H    -1.5766718220   -6.4799204916    1.1535955623
     H    -7.3443905458   -6.2557623767   -0.8206750621
     H    -7.6171781739   -5.7846667080    0.8727203898
     H    -8.0861890554   -7.3983989995    0.3122286563
     H    -5.5484715797   -8.6459214532    1.9986750578
     H    -5.2654082286   -9.1090942923    0.3050878586
     H    -6.9186009151   -9.0089542364    0.9348126210
     H     0.9930605997    3.6610764916   -1.4727298013
     H     2.7458497481    5.3948031936   -1.7075324135
     H     5.0938467895    4.8827450149   -1.0831178574
     H     5.6836704473    2.6285196187   -0.2215800239
     H     3.9258043501    0.8915629220    0.0115523713
