28
-7.4067679747290140e+02 frame 38   xyz file generated by TeraChem
     O     1.6345908528    1.9962638377    0.1492440187
     C     1.2692074374    0.8244168033    0.1282572009
     N     2.1289317847   -0.2055458450    0.4002106000
     C     1.8338590364   -1.5742005332    0.0047054177
     N     0.4748930034   -1.8594311344    0.4318308958
     C    -0.4931082031   -0.9436056290    0.0524367195
     C    -0.1272359935    0.4055045894   -0.1217914752
     C    -1.0943062130    1.3561883690   -0.4546884906
     C    -2.4203473948    0.9869209940   -0.6247169229
     C    -2.7816992170   -0.3526326614   -0.4445071140
     C    -1.8362925715   -1.3116197025   -0.1084744261
     C     2.7993161893   -2.5284752303    0.6594989410
     C     2.8870396714   -2.6265942095    2.0488930997
     C     3.7930930895   -3.5233961469    2.5978502178
     C     4.5769174136   -4.2887157522    1.7349589066
     N     4.5064088034   -4.2092893120    0.4045151133
     C     3.6299959564   -3.3412083924   -0.1081260911
     H     3.1067991324    0.0545890670    0.4456392731
     H     1.9262840843   -1.6746103525   -1.0927366240
     H     0.2145103302   -2.8288198510    0.2932239826
     H    -0.7764414545    2.3885587648   -0.5693556253
     H    -3.1697839617    1.7271380381   -0.8878387151
     H    -3.8179201702   -0.6548004090   -0.5735960707
     H    -2.1256473221   -2.3508630432    0.0277075669
     H     2.2520483593   -2.0083929643    2.6778987908
     H     3.8956071036   -3.6330765662    3.6731137901
     H     5.2966746784   -5.0007772572    2.1355751540
     H     3.5840606134   -3.2878023664   -1.1960799093
