23
-5.8375692917680954e+02 frame 26   xyz file generated by TeraChem
     O     1.0187204473   -0.2407309588   -0.1748952141
     C     2.2326191280   -0.3408083601   -0.0993092222
     N     2.9383299094   -1.3115436456    0.5340071735
     C     4.3647484152   -1.2560212352    0.2491548886
     N     4.5464214395    0.1420765971   -0.1858181159
     C     3.2656017500    0.6000049586   -0.7143415396
     C     5.0947306134    0.8397947437    0.9037040480
     C     5.5416004142   -0.0308665795    1.9039469126
     C     5.2683608465   -1.4458277178    1.4762530101
     C     6.1465428020    0.4582489061    3.0505590292
     C     6.2856904447    1.8396596090    3.1676871680
     C     5.8475134491    2.7195872738    2.1868775673
     C     5.2453536670    2.2174782491    1.0317534007
    Br     7.1286237478    2.5709580962    4.7785087661
     H     2.4854246923   -2.1625160847    0.8420662631
     H     4.6173277870   -1.9508983230   -0.5604414298
     H     3.2231589644    0.5115675082   -1.8068275328
     H     3.0590436003    1.6390248758   -0.4476833742
     H     4.7829308096   -2.0543657166    2.2457399539
     H     6.1933558134   -1.9565753264    1.1834701777
     H     6.4903247406   -0.2085368873    3.8350044526
     H     5.9715048171    3.7902799352    2.3108617699
     H     4.9082022262    2.8992509410    0.2562430853
