32
-6.8899179147276936e+02 frame 33   xyz file generated by TeraChem
     O     0.8143275555   -0.1022377006    0.8504753169
     C     1.9802293799   -0.2634397731    0.5238796698
     C     2.8295708939    0.6734091736   -0.3284187480
     N     4.1802288802    0.1230200006   -0.2494298803
     C     4.0313542901   -1.3209167321    0.0605101179
     N     2.7787720126   -1.3172110223    0.8295443567
     C     3.8547037438   -2.1607762179   -1.1971850322
     C     5.2699944036   -1.6916122853    0.9435365549
     C     5.6332568392   -0.3362155797    1.5068804702
     C     5.0016938105    0.6633773463    0.7642312138
     C     5.2293886000    2.0105419639    1.0318566017
     C     6.1003560625    2.3390801838    2.0732328883
     C     6.7325965651    1.3478176955    2.8227676591
     C     6.5026240695   -0.0011263667    2.5342407389
     C     4.9421474514   -2.7375542801    2.0080267397
     C     6.4453666628   -2.1896262417    0.0867884122
     H     2.7840595811    1.6992161126    0.0425615683
     H     2.4475107294    0.6674122460   -1.3564359716
     H     2.3669468827   -2.1717620700    1.1820505901
     H     2.9681881015   -1.8302121667   -1.7485346464
     H     3.7098012803   -3.2136101954   -0.9300575477
     H     4.7212336628   -2.0832286959   -1.8575381983
     H     4.7472188107    2.7907322625    0.4487346177
     H     6.2847725629    3.3863808415    2.2987038466
     H     7.4053663613    1.6232584679    3.6302747350
     H     6.9947460928   -0.7779206780    3.1156547937
     H     4.1794408446   -2.3786439345    2.7048872193
     H     5.8426824284   -2.9765092714    2.5839748844
     H     4.5896797552   -3.6679910043    1.5461229072
     H     6.6859384407   -1.4825636231   -0.7141388056
     H     6.2310763319   -3.1662202728   -0.3611478382
     H     7.3314762137   -2.2954249330    0.7216428088
