45
-1.1644359214044950e+03 frame 33   xyz file generated by TeraChem
     O    -0.1647277148   -0.8666888120   -0.4107783227
     C     1.1583542606   -0.3810825677   -0.3668226462
     C     2.1177130033   -1.4951677199   -0.0588662748
     C     1.7027110868   -2.7396870286    0.2010631478
     C     2.6256570283   -3.8827613724    0.5370009759
     N     2.4798905674   -4.1311742407    1.9767934735
     C     3.1811324346   -5.2422877434    2.6502435987
     C     2.9650948425   -6.5692829128    1.9122062516
     C     3.8981234998   -7.6882975980    2.3625599183
     O     1.5920688098   -6.9492049718    1.9377053580
     C     1.0285966975   -7.1068275131    3.2320933841
     C     1.1447463309   -5.8014540081    4.0231174088
     C     2.5861669307   -5.2821223694    4.0656383490
     O     3.4086621824   -6.0942483878    4.8806297799
     O     0.2730773875   -4.8495492301    3.4407797387
     O    -0.3091487991   -7.4232265176    3.0615401478
     C     4.0316995053   -3.5508421046    0.0150073044
     C     4.4796321452   -2.1751569067    0.4862228378
     C     3.5789419048   -1.1027767575   -0.1109916616
     O     3.8103847605    0.1692399842    0.4755651668
     O     5.8128772686   -1.9302231161    0.1009402224
     O     5.0351551851   -4.4691026401    0.4276056373
     H    -0.7478701549   -0.1012123459   -0.5037438220
     H     1.2700842662    0.4053784513    0.3945760314
     H     1.4517072164    0.0796862866   -1.3262804854
     H     0.6366897838   -2.9512714738    0.2072086496
     H     2.2650027295   -4.7780901245    0.0171399140
     H     2.6886974092   -3.2707816085    2.4783089987
     H     4.2614939415   -5.0689082025    2.7257160229
     H     3.1685469472   -6.4013944927    0.8509313032
     H     3.8106298387   -7.9090806600    3.4277444732
     H     4.9366720883   -7.4011574000    2.1640614107
     H     3.6783971093   -8.5935809835    1.7870795862
     H     1.5069774329   -7.9420289864    3.7581468945
     H     0.7935785778   -5.9866105230    5.0470105995
     H     2.5591385105   -4.2523877844    4.4586949061
     H     3.0614277394   -6.0440337226    5.7835832076
     H     0.7984833044   -4.4837390897    2.6824481554
     H    -0.7307871441   -6.5587926229    2.8889704665
     H     3.9829607879   -3.5279572972   -1.0842376467
     H     4.3906138640   -2.1290538596    1.5873776977
     H     3.8746778774   -0.9754467747   -1.1617220248
     H     3.5745815664    0.0996967516    1.4136824644
     H     6.2616889061   -2.7838338159    0.2290556513
     H     5.0680000534   -5.1938570330   -0.2120364814
