51
-1.7551645469380533e+03 frame 61   xyz file generated by TeraChem
     N    -0.1967514214    0.2117269342    0.5112454396
     C     0.7343539606   -0.4187958443    0.8140807631
     C     1.8795221919   -1.1221089387    1.2777576228
     C     2.4725997608   -2.1658482036    0.6402091039
     C     2.1608953595   -2.8459737604   -0.5990986486
     C     1.0948786293   -2.5095727889   -1.4533555637
     C     0.8887672335   -3.2400291419   -2.6148572791
     C     1.7209454967   -4.3063042126   -2.9425143856
     C     2.8006703550   -4.6583526608   -2.1161120528
     C     3.0034263904   -3.9146551273   -0.9502066106
     C     3.6755109408   -5.7724724323   -2.4839454810
     C     3.9023285694   -6.2947214029   -3.7359500592
     C     4.8176052354   -7.3737665242   -3.7384621018
     C     5.3115586682   -7.6843335301   -2.4925896868
     S     4.6049154930   -6.6360946089   -1.2967596458
     C     6.1904641216   -8.8128812734   -2.1563145564
     C     5.8513173786  -10.0639228769   -2.6931193722
     C     6.6023985881  -11.1980743648   -2.4332476962
     C     7.7308820846  -11.1328745145   -1.6073629671
     C     8.1108057492   -9.8736670486   -1.0611883934
     C     7.3461238949   -8.7006220634   -1.3433803324
     C     7.8154019662   -7.4504436563   -0.8164491982
     C     8.9228899682   -7.3760138454   -0.0311588746
     C     9.6828321549   -8.5421441097    0.3017961841
     C     9.2694593967   -9.7936875994   -0.2339259387
     C    10.0254978268  -10.9662842858    0.0572688077
     C     9.6059730943  -12.2181163317   -0.5013198976
     C     8.5097275661  -12.2959463329   -1.3003256688
     C    11.1573614439  -10.8636827092    0.8770839038
     C    11.5490451852   -9.6353123739    1.4004881026
     C    10.8223941251   -8.4840999855    1.1157227162
     C     2.4790430803   -0.6769191047    2.5784033443
     O     3.4571272134   -1.2025203614    3.0594621792
     O     1.8889229605    0.3418270895    3.2106486301
     H     3.3374692588   -2.5518581837    1.1782397905
     H     0.4282692528   -1.6889741436   -1.2161516651
     H     0.0612056907   -2.9859055750   -3.2705374056
     H     1.5240547449   -4.8826612404   -3.8415872686
     H     3.8396254567   -4.1515933823   -0.2965556424
     H     3.4475119108   -5.8945559362   -4.6361185313
     H     5.1280204057   -7.9004478510   -4.6350332253
     H     4.9590426338  -10.1410619075   -3.3077863498
     H     6.3062667293  -12.1549280372   -2.8560394451
     H     7.2812551662   -6.5404173369   -1.0671107433
     H     9.2578074246   -6.4141927663    0.3500664726
     H    10.1894287350  -13.1070870224   -0.2737312791
     H     8.2001229374  -13.2480044724   -1.7247946661
     H    11.7302638280  -11.7609778830    1.0986547079
     H    12.4299291189   -9.5748721837    2.0338626778
     H    11.1337306911   -7.5242563454    1.5209066629
     H     1.1119971934    0.6768941784    2.7299815390
