61
-1.4559823536265117e+03 frame 53   xyz file generated by TeraChem
     N     2.8945035039   -2.5336525251    0.6298608505
     C     3.1837903033   -1.4182835753    0.4756012194
     C     3.5815928443   -0.0480542582    0.3202815902
     C     3.2237781532    0.6272999631   -0.7978145415
     C     2.4366538728    0.1226651525   -1.9337147824
     C     1.1058476292   -0.3315026963   -1.7780707639
     C     0.4098367619   -0.2972786212   -0.5309791598
     C    -0.8771520204   -0.7485083205   -0.4236490552
     C    -1.5667527904   -1.2626959025   -1.5555110453
     C    -0.9521173810   -1.2819271435   -2.7751662475
     C     0.3850499633   -0.8073915923   -2.9318992340
     C     0.9922611439   -0.7827758593   -4.1874800622
     C     2.2894611795   -0.2974852771   -4.3615254728
     C     3.0303182219    0.1617653347   -3.2184741249
     C     4.3662173518    0.6184513732   -3.4287333256
     C     4.9151852137    0.6489231299   -4.6827983038
     C     4.1738963265    0.2075261133   -5.8116364309
     C     2.8987033124   -0.2583262851   -5.6507999849
     C     4.4146747520    0.5117665295    1.4062059571
     C     4.3208544371    0.0137557174    2.7130340072
     C     5.0881256732    0.5385252109    3.7420007697
     C     5.9856430099    1.5889248799    3.4997217496
     C     6.0901606400    2.0858429818    2.1903877196
     C     5.3259971383    1.5504330179    1.1665748308
     N     6.7694026862    2.1237691651    4.5334874052
     C     8.0926229003    2.5583004730    4.2722345025
     C     8.5550502883    3.7690784785    4.8013996966
     C     9.8581753999    4.1875675270    4.5517894303
     C    10.7101445963    3.4169661614    3.7618549694
     C    10.2483580120    2.2136728907    3.2301050735
     C     8.9524611690    1.7791490408    3.4888842081
     C     6.2640417952    2.1982887628    5.8539638588
     C     7.0700889313    1.8419484226    6.9417827874
     C     6.5738364482    1.9336629260    8.2384753436
     C     5.2680092351    2.3635067092    8.4687820397
     C     4.4622817180    2.7111218522    7.3852220359
     C     4.9556390988    2.6398152101    6.0867604999
     H     3.5891825238    1.6498703564   -0.8847265309
     H     0.9081264622    0.1115102630    0.3418574733
     H    -1.3834846160   -0.7062125323    0.5368967082
     H    -2.5857279363   -1.6236859140   -1.4469476715
     H    -1.4718228790   -1.6501106961   -3.6565957362
     H     0.4382631587   -1.1411095383   -5.0529006913
     H     4.9603584022    0.9357765680   -2.5767868604
     H     5.9325449937    1.0061764913   -4.8177327304
     H     4.6288305243    0.2346713367   -6.7979117370
     H     2.3221558359   -0.6097358074   -6.5032961792
     H     3.6387491336   -0.8037503240    2.9330419304
     H     4.9964954069    0.1279699383    4.7426020084
     H     6.7832298642    2.8929665717    1.9749038217
     H     5.4532352504    1.9455425956    0.1626756089
     H     7.8887598570    4.3773656192    5.4065166135
     H    10.2042788862    5.1301236700    4.9679883029
     H    11.7249935423    3.7501743053    3.5636143408
     H    10.9050620733    1.5983352627    2.6206461183
     H     8.5994169037    0.8337197187    3.0869382348
     H     8.0832976909    1.4928974609    6.7650042787
     H     7.2110267750    1.6535152443    9.0732981007
     H     4.8821156799    2.4278896400    9.4822841664
     H     3.4449364752    3.0564242510    7.5499070222
     H     4.3309587409    2.9269418269    5.2458128167
