67
-1.6094486697272396e+03 frame 51   xyz file generated by TeraChem
     N     2.0668102650    0.1833351070    2.4462442291
     C     2.5657630522    0.1472619430    1.3969549052
     C     3.2130497923    0.1398972623    0.1148936104
     C     3.1667953362   -0.9873443434   -0.6345470745
     C     2.4939150164   -2.2528912053   -0.2991823401
     C     1.0926558899   -2.3250400105   -0.1168865460
     C     0.2262981709   -1.1993259641   -0.2708065964
     C    -1.1243846804   -1.3118145179   -0.0858117296
     C    -1.7115235877   -2.5588475286    0.2620555745
     C    -0.9256050797   -3.6687247040    0.3875770211
     C     0.4866956761   -3.5962134037    0.1900612718
     C     1.2802037209   -4.7403014816    0.2726111482
     C     2.6586242732   -4.6895333284    0.0570570887
     C     3.2817071971   -3.4265767929   -0.2318066959
     C     4.6974718043   -3.4066000915   -0.4142231988
     C     5.4363445321   -4.5573681141   -0.3470278342
     C     4.8141927403   -5.8054126758   -0.0748360587
     C     3.4632887387   -5.8652052681    0.1270909244
     C     3.9211891277    1.3811808454   -0.2609609551
     C     3.5890315024    2.6048408454    0.3390582869
     C     4.2296642583    3.7822509495   -0.0110543425
     C     5.2371367186    3.7848369669   -0.9899969963
     C     5.5838753169    2.5600897612   -1.5849565475
     C     4.9434549063    1.3869174561   -1.2205879922
     N     5.9099538080    4.9623671017   -1.3323550734
     C     7.2008399006    4.8969173119   -1.9315615173
     C     7.3692737740    5.3241987949   -3.2313667058
     C     8.6383458708    5.2898606160   -3.8454562327
     C     9.7274012423    4.8117652611   -3.1583508805
     C     9.5956622678    4.3684195511   -1.8181917679
     C     8.3182774231    4.4217696239   -1.1779795567
     C     8.2154142342    4.0203030193    0.1777438341
     C     9.3190625057    3.5673336281    0.8612736892
     C    10.5782197724    3.4934903323    0.2237623649
     C    10.7114575791    3.8898693735   -1.0846345166
     C     5.2737687657    6.2273711902   -1.2793075152
     C     5.9966587748    7.3454032491   -0.8464853245
     C     5.3964363912    8.6000885158   -0.8224428084
     C     4.0676893773    8.7567249584   -1.2140285072
     C     3.3460519058    7.6431000898   -1.6410079329
     C     3.9430642798    6.3868915621   -1.6840502890
     H     3.7104340055   -0.9734986753   -1.5785107958
     H     0.6494649417   -0.2418097462   -0.5558521025
     H    -1.7595473448   -0.4393522015   -0.2133781362
     H    -2.7856071727   -2.6248368724    0.4120160223
     H    -1.3598292338   -4.6352883021    0.6321648639
     H     0.8123397698   -5.6956656950    0.5019713234
     H     5.1960789159   -2.4594234071   -0.5984498684
     H     6.5122869756   -4.5174552025   -0.4943211171
     H     5.4182986170   -6.7068403130   -0.0205615991
     H     2.9740117763   -6.8112077361    0.3468582475
     H     2.8151722813    2.6399375609    1.1017150056
     H     3.9532345130    4.7082955847    0.4826027565
     H     6.3675797106    2.5295684327   -2.3352107216
     H     5.2588888432    0.4607934584   -1.6926431944
     H     6.5067107114    5.6882518683   -3.7826464300
     H     8.7422997214    5.6319129959   -4.8713604696
     H    10.7068395180    4.7714572643   -3.6287857675
     H     7.2522109145    4.0822649283    0.6742251814
     H     9.2249057336    3.2671557835    1.9014279901
     H    11.4410607729    3.1297874680    0.7751675157
     H    11.6787623231    3.8475573969   -1.5801008840
     H     7.0288595334    7.2235069485   -0.5304149632
     H     5.9706291506    9.4587412819   -0.4842401270
     H     3.5996554477    9.7367853677   -1.1883544780
     H     2.3127527282    7.7517037227   -1.9602117955
     H     3.3816031198    5.5263800557   -2.0359583814
