63
-1.5607059190528735e+03 frame 116   xyz file generated by TeraChem
     N     0.4562839026   -1.2901107029   -4.2722637338
     C     0.3194528957   -1.1056433238   -3.1308029095
     C     0.1285287927   -0.9224527515   -1.7397353865
     C     0.6256486170    0.1740770027   -1.0553885444
     O     0.4035652865    0.2739182582    0.2468011424
     C     1.0050180976    1.4911644595    0.7897785870
     C     1.6403306875    2.1294468672   -0.4272105509
     C     1.3862261736    1.3023586286   -1.5086842020
     C     1.8225638603    1.5515623525   -2.8305386648
     N     2.2088866938    1.8075463032   -3.8973738326
     C     2.3721453500    3.3387500552   -0.4997314534
     C     2.6466911253    4.1711875609    0.5498643509
     C     3.3877964190    5.4001895505    0.4960595684
     C     3.9302606128    5.9352740830   -0.6969246721
     C     4.6360748158    7.1169997148   -0.6930917384
     C     4.8366547405    7.8300074243    0.5120733620
     C     4.3005727122    7.3038936808    1.7023550214
     C     3.5923296653    6.1191905666    1.6935265403
     N     5.5289474339    9.0283970722    0.6364925920
     N     5.9882164610    9.4836221367   -0.4759309391
     C     6.6617506669   10.6428626871   -0.3637150135
     C     7.2034421752   11.2375398917   -1.4907889559
     N     7.8895802964   12.4016249557   -1.4393372685
     C     8.1331395986   13.1432133406   -0.2197731748
     C     8.3261016745   12.7933728220   -2.7151115535
     C     7.9081086869   11.8391812678   -3.6444693673
     C     7.1469321586   10.7444466787   -2.9314997369
     C     5.6975171143   10.6588882987   -3.4373159514
     C     7.8574039297    9.3900327231   -3.0873151459
     C     8.2146196362   11.9973363128   -4.9852323945
     C     8.9445624747   13.1224919544   -5.3822135303
     C     9.3551781184   14.0660924391   -4.4406655128
     C     9.0525850248   13.9182575040   -3.0851578350
     C    -0.1433871153    2.2998395115    1.3793454604
     C     2.0150563374    1.0285515029    1.8330182153
     C    -0.6055328256   -1.9115578967   -1.0367947065
     N    -1.2096102683   -2.7274168166   -0.4669555271
     H     2.7360306659    3.5973394891   -1.4915626002
     H     2.2860828161    3.9049414247    1.5404047599
     H     3.7911398632    5.4123074036   -1.6387233081
     H     5.0459373026    7.5147065447   -1.6151463886
     H     4.4578611655    7.8554002979    2.6248173478
     H     3.1838514923    5.7271118782    2.6221613670
     H     6.7694781835   11.0983244218    0.6212504529
     H     8.7164562976   14.0344334071   -0.4460936595
     H     8.6907753943   12.5268515871    0.4921431372
     H     7.1850539974   13.4469371683    0.2353083627
     H     5.1858449496   11.6203539891   -3.3283236317
     H     5.1485292140    9.8994213528   -2.8745591358
     H     5.6995438995   10.3859504282   -4.4979404362
     H     7.8818434994    9.1130515302   -4.1466648259
     H     7.3227062996    8.6165736863   -2.5299515509
     H     8.8879931795    9.4406384056   -2.7212987263
     H     7.8943061707   11.2606858502   -5.7180738365
     H     9.1932063640   13.2623534821   -6.4302673879
     H     9.9218043117   14.9356721744   -4.7618708686
     H     9.3790986010   14.6612512795   -2.3643564719
     H    -0.8607853657    2.5735614851    0.6006442572
     H     0.2274440803    3.2118539444    1.8528195661
     H    -0.6492390649    1.6947060632    2.1370348723
     H     2.7924866266    0.4160016787    1.3677301956
     H     1.4951782135    0.4345067403    2.5901346514
     H     2.4863100404    1.8823206149    2.3254687831
