7
-2.6178374388310834e+02 frame 12   xyz file generated by TeraChem
     C    -1.1331032704    0.0395762655   -0.0007595380
     C    -0.4036111099   -1.1045614679    0.0048022611
     N     0.9132176101   -0.7232935872    0.0012183193
     N     1.0072650881    0.5318954864   -0.0058227312
     O    -0.2875125433    1.0666609133   -0.0073876785
     H    -2.1893741210    0.2639967069   -0.0008137943
     H    -0.7072516757   -2.1398742234    0.0109131615
