69
-1.6562041989832269e+03 frame 96   xyz file generated by TeraChem
     N     4.5024791818    0.1306016594   -1.1634377400
     C     5.0274222891    1.1442482656   -0.9469814778
     C     5.7179638764    2.3685027969   -0.6945426853
     C     5.2500855360    3.3307063524    0.1586004009
     C     6.0618398522    4.5376988530    0.5026277784
     C     6.2793300423    4.6571431583    2.0278271578
     C     7.1493174864    3.5037553293    2.5318082730
     C     6.9596160537    5.9913223850    2.3252571713
     C     4.9012869957    4.6254229684    2.7166453417
     C     4.0937007557    3.4247171514    2.3252344629
     C     3.5099520750    2.6226076844    3.2711032041
     C     2.8338161788    1.4012770523    2.9677080743
     N     2.2911818010    0.3939013974    2.7633701957
     C     3.5754483070    2.9386584942    4.6626977768
     N     3.6175327569    3.1769352307    5.7998180555
     C     3.9812159337    3.1628594634    0.8823955319
     C     2.7575480850    2.8818543563    0.3411274126
     C     2.3036553892    2.8482259450   -1.0312528370
     C     1.0902335848    2.1810321094   -1.2958407018
     C     0.5798316187    2.1110135251   -2.5781641545
     C     1.2336518082    2.7470454017   -3.6473498864
     C     2.4286207099    3.4518442181   -3.3835588833
     C     2.9500169004    3.4941790837   -2.1078762953
     N     0.6217154982    2.6279067202   -4.8929836283
     N     1.1904023509    3.3084814269   -5.8213620256
     C     0.6101194180    3.1862183112   -7.0325386173
     C     1.1093231898    3.8914627415   -8.1117128351
     N     0.5740035023    3.8008883655   -9.3524969328
     C    -0.5550105279    2.9587390658   -9.6852330852
     C     1.2425178630    4.6384653027  -10.2582729825
     C     2.2728432149    5.2976973380   -9.5849136784
     C     2.2827335475    4.8647527806   -8.1360594966
     C     2.0415951443    6.0588836624   -7.2001403721
     C     3.5994499145    4.1534407286   -7.7833879156
     C     3.0870608012    6.1868188991  -10.2653574313
     C     2.8548772441    6.4093400915  -11.6269133421
     C     1.8204014159    5.7438189674  -12.2840553157
     C     0.9923383172    4.8435505606  -11.6095123626
     C     6.9618487645    2.5151780721   -1.3822337904
     N     7.9703886382    2.6165053270   -1.9511512987
     H     5.5104134604    5.4241531981    0.1565055173
     H     7.0293196125    4.5261463814   -0.0082049039
     H     8.1219515091    3.5089275719    2.0273659247
     H     6.6830289840    2.5273983673    2.3544573213
     H     7.3228202515    3.6009152956    3.6093096485
     H     7.9347262221    6.0397100279    1.8279303774
     H     7.1215179848    6.1068476271    3.4028762918
     H     6.3515313781    6.8334270965    1.9755562868
     H     4.3333705397    5.5156963860    2.4078450044
     H     5.0286450298    4.6774581426    3.8024086864
     H     1.9529937056    2.7324793980    1.0589739787
     H     0.5614934381    1.6985832912   -0.4772619831
     H    -0.3447799101    1.5785998448   -2.7816753718
     H     2.9293217692    3.9677176562   -4.1958688381
     H     3.8563126624    4.0657600770   -1.9328163009
     H    -0.2576547003    2.5341257743   -7.1368380153
     H    -0.3558403279    1.9276994575   -9.3784187575
     H    -0.7167335231    2.9767989013  -10.7620437477
     H    -1.4607670170    3.3136539178   -9.1823528512
     H     1.1072247599    6.5721934270   -7.4492591027
     H     2.8654897503    6.7736246599   -7.3008377726
     H     1.9913388289    5.7189274591   -6.1625645387
     H     3.7727574683    3.2976228760   -8.4435265814
     H     3.5714944716    3.8021577436   -6.7485760590
     H     4.4341180371    4.8532640554   -7.8988924989
     H     3.8935769143    6.7041134309   -9.7514006201
     H     3.4834224007    7.1049920659  -12.1753868754
     H     1.6491723780    5.9257640596  -13.3414555541
     H     0.1891761123    4.3359046848  -12.1341995771
