56
-1.4487617972697117e+03 frame 72   xyz file generated by TeraChem
     N     0.7486757694    0.9005081593    0.4039294856
     C     1.8973166387    0.7214168954    0.4048658131
     C     3.3142767485    0.5174003411    0.4500513036
     C     3.9056352346   -0.1248075960   -0.6054753706
     C     5.3027175738   -0.5914078614   -0.6837317128
     C     5.9310536198   -1.1795232713    0.4236906033
     C     7.2321801720   -1.6445752004    0.3321147220
     C     7.9347733403   -1.5423794179   -0.8754657593
     C     7.3060152212   -0.9844096631   -1.9931377439
     C     6.0033335411   -0.5174636780   -1.8949925753
     N     9.2476049138   -2.0341486061   -0.9597826231
     C     9.6815972376   -3.2100346144   -0.3647203963
     C    10.9997619827   -3.4176558807   -0.6382561479
     C    11.4419992899   -2.3129466124   -1.4380774133
     C    10.3248601713   -1.4592076542   -1.6247637301
     C    10.4310822888   -0.2488808279   -2.3154643910
     C    11.6688571923    0.0777920826   -2.8529021894
     C    12.7808301158   -0.7697999678   -2.7025983451
     C    12.6789818189   -1.9571792002   -1.9945724518
     C     3.0955859082   -0.4246980552   -1.7482500829
     N     2.4690117928   -0.6818780563   -2.6929918532
     C     3.9934173512    1.0662611913    1.6390346808
     C     5.2178986392    1.7403949640    1.5236904246
     C     5.8401520822    2.2686545349    2.6426376752
     C     5.2455766703    2.1444276261    3.9044903656
     C     4.0075980964    1.5049450554    4.0236177191
     C     3.3902145551    0.9746833312    2.9002550793
     N     5.8801581716    2.6918652820    5.0320311398
     C     6.5275549883    3.9186888557    5.0500457313
     C     7.0332834172    4.1655605967    6.2908821313
     C     6.7089553410    3.0341566862    7.1099396377
     C     5.9866181824    2.1243659104    6.2963369886
     C     5.5704221314    0.8786484054    6.7740009965
     C     5.8571584456    0.5695936385    8.0967699886
     C     6.5480025134    1.4700259382    8.9271649518
     C     6.9806340611    2.6951107285    8.4435304238
     H     5.3968057948   -1.2778142349    1.3632213042
     H     7.7122204027   -2.0804555768    1.2029486741
     H     7.8229872549   -0.9458365441   -2.9458971044
     H     5.5236297549   -0.0971136142   -2.7748839969
     H     8.9780511189   -3.8240801266    0.1807944966
     H    11.5890496668   -4.2664935633   -0.3178697390
     H     9.5867889798    0.4242032424   -2.4240791060
     H    11.7782217527    1.0113876342   -3.3980676223
     H    13.7331245453   -0.4823300718   -3.1401695864
     H    13.5439628649   -2.6024775144   -1.8632569499
     H     5.6861792473    1.8523830919    0.5509931890
     H     6.7976350653    2.7708204743    2.5431562314
     H     3.5154076696    1.4497079351    4.9886881600
     H     2.4251231316    0.4865158920    3.0061138293
     H     6.5337174577    4.5330603255    4.1599564760
     H     7.5671445496    5.0567054547    6.5931416782
     H     5.0514508748    0.1668327495    6.1401993973
     H     5.5418545365   -0.3910748185    8.4948038826
     H     6.7518016983    1.1948654752    9.9585239105
     H     7.5302510435    3.3822158433    9.0819643408
