44
-1.2726604458244510e+03 frame 36   xyz file generated by TeraChem
     F     2.3795358693   -0.3376657495    2.9300952230
     B     2.2007712779    0.6639845460    1.9941990573
     F     3.0180226069    0.5121875227    0.8995493193
     O     0.7804417680    0.6146450371    1.5106350224
     C    -0.0497782663    1.4827575041    1.9682574474
     N    -1.3689797603    1.4756509411    1.7388470567
     C    -2.0910150988    0.4693723320    0.9765886916
     C    -2.5912145130    0.9718730916   -0.3584960393
     C    -1.7383111051    1.6443850088   -1.2382084441
     C    -2.2020951248    2.0674608840   -2.4802649028
     C    -3.5207759466    1.8164565531   -2.8592106894
     C    -4.3738763088    1.1433425191   -1.9884121677
     C    -3.9107607190    0.7267907695   -0.7414005973
     C    -1.9358060838    2.6069347648    2.3657551979
     C    -0.9150312009    3.3446910844    3.0019023972
     C     0.3105334293    2.6215639886    2.7418213710
     N     1.5621410189    2.9190285422    3.0311625085
     N     2.4774414064    2.0675975098    2.6747928634
     C     3.8145141864    2.4870626500    2.9000487524
     C     4.1422107148    3.8464176269    2.8697632775
     C     5.4555906020    4.2443044368    3.0900941546
     C     6.4506434792    3.2970760318    3.3286995897
     C     6.1192376374    1.9437979916    3.3523799315
     C     4.8071903958    1.5324773205    3.1431703364
     C    -1.2355110836    4.5063000488    3.6980456299
     C    -2.5697609186    4.9070481544    3.7422226539
     C    -3.5681006329    4.1625499022    3.1062843507
     C    -3.2654432603    2.9943791306    2.4043088163
     H    -2.9254852302    0.1133023810    1.5891656161
     H    -1.4004159320   -0.3692135881    0.8431537688
     H    -0.7061298822    1.8374385846   -0.9543273569
     H    -1.5309570240    2.5909198606   -3.1559808086
     H    -3.8809519262    2.1465575693   -3.8299084047
     H    -5.4036548394    0.9466787362   -2.2745897341
     H    -4.5795901742    0.2063775798   -0.0590804592
     H     3.3674205311    4.5777056566    2.6644508279
     H     5.7038619621    5.3018048885    3.0606698096
     H     7.4775156464    3.6116759817    3.4923849189
     H     6.8850056038    1.1973489260    3.5446140428
     H     4.5502052948    0.4804454963    3.1902836744
     H    -0.4612954559    5.0835620113    4.1949228110
     H    -2.8382297353    5.8119805253    4.2797398184
     H    -4.6005403779    4.4963143873    3.1555160288
     H    -4.0417128445    2.4221301617    1.9063831397
