57
-2.2060483628769994e+03 frame 93   xyz file generated by TeraChem
     C     0.7569126307   -0.2685638911   -0.9255310833
     N     2.2046028794   -0.2585619301   -0.7838139446
     C     2.8752189280   -1.4321106609   -0.6384377533
     C     4.2241214728   -1.5053986050   -0.4899939741
     C     5.0347525454   -0.3329751270   -0.4776798681
     C     6.4153926462   -0.4014104206   -0.3157328694
     N     7.0209533374   -1.5966775469   -0.1523153189
     N     8.2922480704   -1.5325521218    0.0047705653
     C     8.9149478439   -2.7752122438    0.1801440161
     C     8.2716522567   -4.0268927356    0.1480866457
     C     8.9964435094   -5.1906130962    0.3482798107
     C    10.3786496239   -5.1580169065    0.5863826868
     C    11.0163583477   -3.9141299668    0.6116624285
     C    10.2977462133   -2.7418315338    0.4105471255
     C    11.1526294623   -6.4313933480    0.7961929754
     C    11.4318017483   -7.1843580658   -0.5138862649
     S    12.4946951590   -6.2690657989   -1.6739750008
     C    13.6809416074   -7.5462915055   -1.7656327121
     S    15.0394373931   -7.4349095572   -2.6906894333
     N    13.3254601691   -8.6126027102   -0.9719351246
     C    12.1337434923   -8.5007511156   -0.2513229696
     O    11.7270534629   -9.3517949417    0.5051221996
     C    14.1330895199   -9.7877371509   -0.8424598565
     C    13.9822382207  -10.8337247131   -1.7467155359
     C    14.7517701988  -11.9817129747   -1.6063115781
     C    15.6685183821  -12.0821397579   -0.5549659185
     C    15.8118736257  -11.0279945164    0.3533027685
     C    15.0436298321   -9.8824686857    0.2077001185
     O    16.4404126335  -13.1761317762   -0.3641889953
     C     4.3207200413    0.9300986487   -0.6392816843
     C     2.9063235409    0.9360047237   -0.7876734444
     C     2.2198259603    2.1554485491   -0.9361988486
     C     2.9109790530    3.3523273323   -0.9402955121
     C     4.3027505802    3.3649792802   -0.7968182823
     C     4.9841764718    2.1725522569   -0.6499857120
     H     0.4118696556   -1.3017674894   -0.8912672085
     H     0.4577309878    0.1718506306   -1.8817547775
     H     0.2853775953    0.2883041432   -0.1098786442
     H     2.2576892231   -2.3232889139   -0.6475525007
     H     4.6907727729   -2.4757032311   -0.3767993976
     H     7.0416870785    0.4895263837   -0.3056239635
     H     7.2020467565   -4.0653635989   -0.0293653522
     H     8.4824577225   -6.1503076099    0.3292035592
     H    12.0866359565   -3.8648911798    0.8000587027
     H    10.7922027535   -1.7743987455    0.4362551383
     H    10.5890083201   -7.1246399378    1.4322530322
     H    12.1046961596   -6.2231066408    1.2967579391
     H    10.4854135025   -7.4092049282   -1.0187786302
     H    13.2658952037  -10.7491246569   -2.5586524798
     H    14.6409536266  -12.8036963299   -2.3096588792
     H    16.5260346709  -11.1215144730    1.1656231846
     H    15.1482926174   -9.0581256966    0.9070677263
     H    16.2529007721  -13.8293888475   -1.0556151323
     H     1.1421380042    2.1636050187   -1.0487515696
     H     2.3637225695    4.2836320004   -1.0555971369
     H     4.8463634741    4.3049666232   -0.8002174857
     H     6.0623219616    2.1969276717   -0.5383605591
