34
-1.2994281668717524e+03 frame 46   xyz file generated by TeraChem
     C    -2.8743999559    0.3814739814    0.8520744192
     N    -1.4372665034    0.2977422301    0.6078816327
     C    -0.6697129376    1.4196198616    0.6409193719
     C     0.6836690552    1.3735305047    0.4727468846
     C     1.3573007953    0.1350271537    0.2567972970
     C     2.7527018688   -0.0086588837    0.0676990045
     C     3.6569592755    1.0344157034    0.0567030854
     C     5.0533597399    0.9827808559   -0.1248824877
     C     5.7633331497   -0.2370584138   -0.3209998201
     C     7.1105528799   -0.2650266019   -0.4992795675
    Cl     7.9112418627   -1.8076191483   -0.7286008736
     C     7.8965399363    0.9369996638   -0.5052867311
     C     7.2376395309    2.1813078939   -0.3129917845
     C     5.7661158012    2.2543708675   -0.1038670114
     O     5.2015860347    3.3455655001    0.0739844364
     N     7.8972090053    3.3527081148   -0.3086706591
     C     9.2087623099    3.3454722723   -0.4889812863
     C     9.9536547643    2.1744433746   -0.6846100989
     C     9.2914845740    0.9648114447   -0.6924605501
     C     0.5108487570   -1.0107433137    0.2351545754
     C    -0.8391385043   -0.9054188794    0.4090903954
     H    -3.2567610377    1.3135562190    0.4334077527
     H    -3.0769320709    0.3532879490    1.9267501831
     H    -3.3694635999   -0.4600251954    0.3661030179
     H    -1.2013345638    2.3501956257    0.8054319421
     H     1.2280370460    2.3101712864    0.5053526563
     H     3.1025425079   -1.0282484286   -0.0823822155
     H     3.2891211594    2.0498415270    0.2002511365
     H     5.2153522099   -1.1748743060   -0.3262178346
     H     9.7057839861    4.3146826222   -0.4795576192
     H    11.0289435163    2.2250033634   -0.8272254378
     H     9.8348987987    0.0369393147   -0.8422842222
     H     0.9370501462   -1.9955103071    0.0722794592
     H    -1.4972626796   -1.7667777121    0.3945088813
