48
-2.6078810827263001e+03 frame 190   xyz file generated by TeraChem
     C    -0.4200927705   -0.5751182449   -1.8672162300
     C    -1.4231958284   -1.5888619616   -1.8746042958
     C    -1.7391923824   -1.8851001386   -3.2317644282
     C    -0.9331484292   -1.0562426115   -4.0638840517
     C    -0.1174950495   -0.2484388458   -3.2200928388
    Cl     0.6406254460    4.3236875267    5.7562016071
     C    -0.4275339642    3.5102916628    4.6493594966
     C    -1.4350840429    2.6720526274    5.1446245042
     C    -2.2425755903    2.0672157237    4.2179607921
     C    -1.9818794652    2.3354717450    2.8521327911
     N    -0.9916082833    3.1526143579    2.4609093097
     N    -0.2252093398    3.7361628752    3.3712588972
     N    -2.7426118886    1.7555693872    1.8765899648
     N    -2.5355049868    2.0352611955    0.5483713847
     C    -3.2399045394    1.2151236606   -0.1520556177
     C    -4.0045088424    0.2148331452    0.6770210803
     C    -3.8154225651    0.7823222741    2.0987431347
     C    -5.0773250412    1.4268573335    2.6419059275
     C    -5.3034190769    2.7984103724    2.5131020079
     C    -6.4696477878    3.3967958138    2.9757408845
     C    -7.4344978023    2.6030006998    3.5850439164
     C    -7.2538028594    1.2325057576    3.7316428677
     C    -6.0777357681    0.6649695213    3.2535272175
    Cl    -5.8807790985   -1.0596223737    3.4307275626
    Cl    -8.8998112749    3.3282552426    4.1781460267
     C    -3.2568780608    1.2547137709   -1.6012059564
     C    -4.0762905742    0.4407171817   -2.4510205947
     C    -3.7695489091    0.7637022405   -3.8000757143
     C    -2.7600999324    1.7705748503   -3.7958104712
     C    -2.4359926763    2.0705358100   -2.4461677740
    Fe    -2.0975264173    0.0912455340   -2.8258985771
     H    -0.0019128204   -0.1002877690   -0.9884213701
     H    -1.8934885169   -2.0252076050   -1.0022030191
     H    -2.4929061544   -2.5851127241   -3.5709439738
     H    -0.9673629870   -1.0145338722   -5.1454208963
     H     0.5745056169    0.5172736238   -3.5485688742
     H    -1.5681984014    2.5175986893    6.2097234148
     H    -3.0516360816    1.4161565461    4.5293651182
     H    -3.5604427304   -0.7817732680    0.5700258766
     H    -5.0583754604    0.1432334360    0.3951911251
     H    -3.4710059680    0.0064045672    2.7884385726
     H    -4.5436425084    3.4122642420    2.0376904074
     H    -6.6250260370    4.4646604793    2.8648472453
     H    -8.0097578080    0.6169036419    4.2062710632
     H    -4.7854384344   -0.3086800440   -2.1213136371
     H    -4.1955671154    0.2933736928   -4.6770736684
     H    -2.2834590501    2.1949216859   -4.6703324073
     H    -1.6827855495    2.7686626496   -2.1047064974
