35
-1.8510623140045830e+03 frame 37   xyz file generated by TeraChem
    Cl    -2.0073121876   -0.2807087907   -0.9363344425
     C    -0.2841474551   -0.2517213714   -0.6873268766
     C     0.2334916991   -0.6182417639    0.5508131864
     C     1.6095378770   -0.5910038302    0.7446071223
     C     2.4720852667   -0.1974117495   -0.2868884960
     C     1.9234284671    0.1728117580   -1.5216908836
     C     0.5506706189    0.1421091883   -1.7294824800
     C     3.9293235842   -0.1799454444   -0.0864446875
     N     4.4091914728    0.1736234519    1.1655574629
     C     5.7365761635    0.2203788802    1.5400982443
     O     6.0880865588    0.5610425544    2.6632721732
     C     6.6479779862   -0.1567689548    0.4716990064
     N     6.1542179208   -0.4895512671   -0.7636891927
     C     4.8071988519   -0.5203547574   -1.0603326995
     N     7.1143524449   -0.7953298291   -1.6315761594
     C     8.2645259875   -0.6541069526   -0.9459163073
     C     8.0228990489   -0.2532159488    0.3822964665
     C     9.5509395068   -0.9067190463   -1.6023775465
     C     9.6097563088   -1.1704859075   -2.9775570650
     C    10.8235250911   -1.4084144946   -3.6089764205
     C    11.9949607054   -1.3821378553   -2.8576249390
     C    11.9672367143   -1.1239639741   -1.4907632278
     C    10.7453675984   -0.8887177650   -0.8719020102
    Cl    13.5240126386   -1.6774859417   -3.6429800444
     H    -0.4285716774   -0.9306093988    1.3518108462
     H     2.0073586628   -0.9090374143    1.7047063589
     H     2.5738824206    0.5090944397   -2.3238281897
     H     0.1320887300    0.4363667858   -2.6864325411
     H     3.7542635213    0.4987090925    1.8678223478
     H     4.5343307623   -0.8499488604   -2.0521873453
     H     8.7318275129   -0.0514476877    1.1715938445
     H     8.6925462366   -1.1859012788   -3.5577623179
     H    10.8607088687   -1.6103571815   -4.6747487004
     H    12.8880201999   -1.1090242700   -0.9165878667
     H    10.7300857629   -0.6933088237    0.1963090133
