57
-1.3787258440463602e+03 frame 42   xyz file generated by TeraChem
     C     0.8757425627    0.0526687632    0.0394397711
     C     2.3754238887    0.0193768982    0.0752163664
     C     3.1070723065    1.2440792329    0.1140429075
     C     4.4717045253    1.2548537958    0.1294161728
     C     5.2267287853    0.0412101656    0.1100786739
     C     4.5018617265   -1.2026785502    0.1047565013
     C     3.0736596395   -1.1595045078    0.0727617672
     C     5.2038292645   -2.4238832991    0.1229719216
     C     4.4495914488   -3.7039005682    0.1705466582
     C     3.8188338772   -4.1089059099    1.3810138180
     N     3.1286541564   -5.2144975531    1.5356496348
     C     2.9999261205   -6.0415193884    0.4599360046
     C     3.5897664698   -5.7419800440   -0.8026556933
     C     4.3254014560   -4.5392050580   -0.9167515544
     C     3.4172937383   -6.6440872530   -1.8812901528
     C     2.6875014210   -7.7963156860   -1.7112882870
     C     2.1023093037   -8.0938296824   -0.4581929366
     C     2.2543649965   -7.2365636048    0.6059148348
     C     6.6137321938   -2.4319795204    0.1253563268
     C     7.3372872171   -1.1864523144    0.1082538317
     C     6.6342806552    0.0356245952    0.1113758317
     C     7.3877543009    1.3163982025    0.1467396765
     C     8.0230601055    1.7305453612    1.3516886430
     N     8.7129910053    2.8377404718    1.4952954352
     C     8.8369506555    3.6567642970    0.4129715896
     C     8.2417407065    3.3479159517   -0.8448897108
     C     7.5062083063    2.1440817780   -0.9470685950
     C     8.4095970891    4.2420865095   -1.9309143332
     C     9.1402511061    5.3953855094   -1.7724902012
     C     9.7308239443    5.7020644264   -0.5241237104
     C     9.5831504271    4.8527753790    0.5469639885
     C     8.7650528073   -1.2296956625    0.0790475601
     C     9.4418399210   -2.4178437747    0.0956163784
     C     8.7296372182   -3.6444747762    0.1453321438
     C     7.3621351743   -3.6488125696    0.1585054421
     H     0.4736126222    0.5747479291    0.9164848999
     H     0.4524983339   -0.9557352107    0.0190516699
     H     0.5151269657    0.5931815797   -0.8444917817
     H     2.5601382267    2.1842470772    0.1296408935
     H     5.0024473355    2.2010626147    0.1582294382
     H     2.5282182500   -2.0982359701    0.0394026126
     H     3.9085656786   -3.4636795104    2.2552943661
     H     4.7852255606   -4.2815889007   -1.8687137408
     H     3.8703057733   -6.4079296440   -2.8414166762
     H     2.5572200166   -8.4855073309   -2.5410747862
     H     1.5282209081   -9.0088795306   -0.3401135783
     H     1.8127728283   -7.4481202989    1.5757086688
     H     7.9372343800    1.0918829001    2.2311570435
     H     7.0424764841    1.8792145500   -1.8951130793
     H     7.9526185619    3.9988789049   -2.8873984693
     H     9.2671826026    6.0783911624   -2.6078931366
     H    10.3056003945    6.6178198324   -0.4153113360
     H    10.0289625263    5.0714052836    1.5132417074
     H     9.3147537878   -0.2947617881    0.0365024627
     H    10.5281300616   -2.4253740255    0.0714620672
     H     9.2754903566   -4.5837222878    0.1708160798
     H     6.8253830108   -4.5912383594    0.1953241701
