43
-1.0288839423175159e+03 frame 58   xyz file generated by TeraChem
     C     2.5819195707   -0.9939130552   -0.3830318071
     C     1.1398390372   -0.5742873326   -0.3577397272
     C     0.1184040235   -1.5172201421   -0.1955783155
     C    -1.2140443632   -1.1366809312   -0.1094245774
     C    -1.5674347329    0.2174388157   -0.2240551621
     C    -0.5534604885    1.1624453510   -0.4495552611
     C     0.7767101391    0.7728009250   -0.4860312525
     N    -2.8731166537    0.6737724180   -0.2644336023
     C    -3.8925085037    0.2495244429    0.3677290917
     C    -4.2784454644   -0.7422421335    1.4658665930
     N    -3.5821912229   -1.3787061340    2.3458974209
     C    -2.2833628039   -1.1266013964    2.7367820117
     C    -1.7347032138    0.1613731739    2.8726521704
     C    -0.4581094991    0.3334640712    3.3943195853
     C     0.3289428873   -0.7564190147    3.7803093253
     C    -0.2291528852   -2.0371593182    3.6646324234
     C    -1.5126358077   -2.2206348125    3.1747552829
     C     1.7270498376   -0.5648729322    4.2968216770
     N    -5.6488433148   -0.8990165840    1.4473540616
     C    -6.1326678005   -0.0272617070    0.5857852006
     N    -5.1616125317    0.7202246957   -0.0574505273
     C    -5.4206588819    1.6688499844   -0.9989591860
     C    -6.7143239870    1.9403480000   -1.3238868742
     C    -7.7564727031    1.2085744819   -0.6843638852
     C    -7.4842245232    0.2435720483    0.2474756681
     H     2.7025874589   -1.9854693700   -0.8310130884
     H     2.9902161540   -1.0456936775    0.6352922095
     H     3.1958968345   -0.2824164547   -0.9440804206
     H     0.3730183705   -2.5719500568   -0.1197817747
     H    -1.9899444903   -1.8878403735    0.0049157880
     H    -0.8316956430    2.2046398268   -0.5792833517
     H     1.5502405985    1.5225687566   -0.6362143385
     H    -2.3330939431    1.0288416897    2.6066892791
     H    -0.0622548535    1.3411938536    3.5028193334
     H     0.3504177671   -2.9024549954    3.9800381620
     H    -1.9454835766   -3.2154817428    3.1124875058
     H     1.8731363952    0.4454152732    4.6917888221
     H     2.4653883805   -0.7134719553    3.4972581260
     H     1.9629248255   -1.2824141488    5.0899870878
     H    -4.5487803804    2.1491176376   -1.4279916969
     H    -6.9379110273    2.7000983481   -2.0632283888
     H    -8.7886097415    1.4212860310   -0.9481222728
     H    -8.2641724580   -0.3265063610    0.7394182852
