138
-2.9966135480368230e+03 frame 87   xyz file generated by TeraChem
     C    -0.1263280793    1.9519760638   -4.1006052200
     C    -1.0802457957    1.5176429004   -3.0222394524
     C    -1.8980047164    2.4351502656   -2.3561559374
     C    -2.7819503594    2.0373738801   -1.3588361652
     C    -2.8619931424    0.6916698255   -0.9786827169
     C    -2.0413913488   -0.2359230061   -1.6330565053
     C    -1.1768952460    0.1755375723   -2.6407613497
     N    -3.7740742490    0.2745667225    0.0161751802
     C    -4.2826688847   -1.0491425232   -0.0204763657
     C    -3.9847414568   -1.9234750328    1.0217573997
     C    -4.4483171434   -3.2362174584    1.0314055859
     N    -4.1128879936   -4.0853194264    2.1160904456
     C    -5.1382579357   -4.5955801541    2.9426648931
     C    -4.9820800891   -5.8239511814    3.5974085542
     C    -6.0020314734   -6.3299596534    4.3958118360
     C    -7.2131508102   -5.6505247021    4.5579506122
     C    -7.3611741545   -4.4305911891    3.8895833269
     C    -6.3448488272   -3.9020760045    3.1024449875
     C    -8.3148583253   -6.2005236406    5.4211810049
     C    -2.7546490339   -4.1750686429    2.4996123105
     C    -2.3617681492   -4.1153224464    3.8406720629
     C    -1.0150098308   -4.2036878265    4.1818303886
     C    -0.0190126490   -4.3354578185    3.2113513898
     C    -0.4243926355   -4.3825990045    1.8718906958
     C    -1.7649153404   -4.3138928331    1.5167386265
     C     1.4346733106   -4.4309796471    3.5831543490
     C    -5.2145090191   -3.7224987843   -0.0519934721
     C    -5.5549635715   -2.8276769182   -1.1084440006
     C    -5.1030541959   -1.4758384332   -1.0883205983
     C    -5.5170950135   -0.5920972870   -2.1319820524
     C    -6.2793765942   -1.0326041444   -3.1681863690
     C    -6.6935514964   -2.3972757136   -3.2576885703
     C    -6.3537044267   -3.2920215087   -2.2008729732
     C    -6.8037615128   -4.6444232269   -2.2218017700
     C    -6.3948418946   -5.5266697912   -1.1749353290
     C    -5.6333889670   -5.0858528361   -0.1380958376
     C    -7.6159325385   -5.0735085526   -3.2949929473
     C    -7.9105096882   -4.2003886125   -4.3388547905
     C    -7.4524850327   -2.8853765720   -4.3453955871
     N    -7.7842401094   -2.0379425536   -5.4320301933
     C    -9.1379390306   -1.9622000510   -5.8343303948
     C   -10.1435780332   -1.8369839469   -4.8677075310
     C   -11.4802765623   -1.7846294661   -5.2443958423
     C   -11.8633537574   -1.8332306037   -6.5889894609
     C   -10.8500173921   -1.9547437602   -7.5447788854
     C    -9.5092554980   -2.0266940344   -7.1826362176
     C   -13.3084350474   -1.7352232138   -6.9924202856
     C    -6.7548367701   -1.5095479670   -6.2421938534
     C    -5.5394865823   -2.1854613822   -6.3939837507
     C    -4.5186529456   -1.6341448597   -7.1631245533
     C    -4.6723627756   -0.4092946733   -7.8164568159
     C    -5.8984505890    0.2508013802   -7.6682706192
     C    -6.9204123485   -0.2768055264   -6.8902648021
     C    -3.5584913481    0.1938385286   -8.6266628118
     N    -8.1173128767   -6.4001017202   -3.3356290641
     C    -9.0480799522   -6.8157880666   -2.3574827350
     C    -9.8817411621   -5.8924633890   -1.7193020463
     C   -10.7680950997   -6.3094593030   -0.7292114821
     C   -10.8704215341   -7.6498256607   -0.3535730050
     C   -10.0327678257   -8.5660335985   -1.0026681611
     C    -9.1310274306   -8.1642823132   -1.9784547289
     C   -11.8457633102   -8.1012133799    0.6980020960
     C    -7.9013062006   -7.1604276853   -4.5081867581
     C    -6.6437290881   -7.1402084370   -5.1252482007
     C    -6.4187494682   -7.8624269397   -6.2907101959
     C    -7.4228402080   -8.6440785054   -6.8726528921
     C    -8.6725892732   -8.6579171160   -6.2464208223
     C    -8.9191234329   -7.9253120509   -5.0899715883
     C    -7.1609432797   -9.4564239844   -8.1103422121
     C    -3.9801002326    1.0385931888    1.1879755471
     C    -5.2318961654    1.0198053702    1.8165914618
     C    -5.4462453905    1.7447639298    2.9824176892
     C    -4.4370458757    2.5279409434    3.5531818618
     C    -3.1931438411    2.5405878977    2.9152395523
     C    -2.9571663442    1.8053795902    1.7583020218
     C    -4.6879422757    3.3432828697    4.7911827780
     H    -0.2767425818    3.0033892147   -4.3644808780
     H    -0.2516095738    1.3535351308   -5.0105011482
     H     0.9171875002    1.8352926745   -3.7818168603
     H    -1.8561082834    3.4865803849   -2.6332406846
     H    -3.4171895087    2.7724126297   -0.8730185472
     H    -2.0829453926   -1.2841421544   -1.3512029025
     H    -0.5537131335   -0.5678260836   -3.1341804299
     H    -3.3728872294   -1.5723112364    1.8474352265
     H    -4.0581164036   -6.3817766904    3.4759671012
     H    -5.8565960560   -7.2861684722    4.8942729165
     H    -8.2891819392   -3.8722164789    3.9960084637
     H    -6.4839678168   -2.9454282646    2.6069388603
     H    -8.0640965167   -7.1966884083    5.7984524728
     H    -9.2575598414   -6.2772319502    4.8665907758
     H    -8.5043202347   -5.5534417424    6.2865927904
     H    -3.1108096104   -3.9974537312    4.6180827582
     H    -0.7338682029   -4.1532190673    5.2317557819
     H     0.3242748580   -4.4891466975    1.0893201246
     H    -2.0552756522   -4.3683424138    0.4709742204
     H     1.5813705953   -4.2825925573    4.6574238389
     H     2.0330891929   -3.6807477597    3.0530503014
     H     1.8499490513   -5.4126581227    3.3227489594
     H    -5.2215247834    0.4503249392   -2.0780562090
     H    -6.5935586776   -0.3419009646   -3.9433373496
     H    -6.6929967789   -6.5684792627   -1.2272943513
     H    -5.3222297076   -5.7752459631    0.6395154160
     H    -8.5146609899   -4.5544515882   -5.1689213328
     H    -9.8710463335   -1.7834398346   -3.8171112582
     H   -12.2430539912   -1.6917578797   -4.4739760026
     H   -11.1142976612   -2.0118088515   -8.5988480727
     H    -8.7461338551   -2.1388632638   -7.9471371971
     H   -13.9657583711   -2.1684599158   -6.2314403895
     H   -13.4932671106   -2.2520710447   -7.9397634261
     H   -13.6136573365   -0.6892163127   -7.1274196850
     H    -5.3952102035   -3.1471736109   -5.9099082503
     H    -3.5829397585   -2.1798174824   -7.2665383696
     H    -6.0525036238    1.2080630094   -8.1624110203
     H    -7.8556569787    0.2642714084   -6.7795080926
     H    -2.8242879853   -0.5632244816   -8.9199096693
     H    -3.0249783545    0.9649217673   -8.0556289110
     H    -3.9387101650    0.6721652583   -9.5357813407
     H    -9.8376570772   -4.8433635571   -1.9973865699
     H   -11.4038209188   -5.5694652778   -0.2473636178
     H   -10.0759832690   -9.6181582783   -0.7275757656
     H    -8.4825228212   -8.8957150182   -2.4521541078
     H   -12.3237764117   -7.2475247439    1.1881567936
     H   -11.3528311990   -8.7030132868    1.4705528625
     H   -12.6387391620   -8.7239620591    0.2651254975
     H    -5.8427782158   -6.5511542763   -4.6866243031
     H    -5.4339806988   -7.8256080449   -6.7521986074
     H    -9.4810373689   -9.2422238511   -6.6814732452
     H    -9.9070007319   -7.9416902148   -4.6393262825
     H    -6.4539720409   -8.9526440170   -8.7779199906
     H    -8.0851727950   -9.6418964632   -8.6671211436
     H    -6.7289196649  -10.4343530240   -7.8603091979
     H    -6.0368078741    0.4296843177    1.3867711888
     H    -6.4267369447    1.7089587883    3.4529932061
     H    -2.3809545530    3.1262715052    3.3413653348
     H    -1.9736992730    1.8213796781    1.2980734273
     H    -5.3895376086    2.8414131345    5.4658231581
     H    -5.1215970758    4.3208308029    4.5424729188
     H    -3.7590162078    3.5296920556    5.3397923712
