51
-3.3031716518315038e+03 frame 60   xyz file generated by TeraChem
     C     0.9831351036    0.4343787606    0.2351416072
     N     2.3705274655    0.3695578818   -0.1805313104
     C     3.1238216729   -0.7625602543   -0.4344363590
     N     4.4195364605   -0.5348663716   -0.5537057010
     C     4.5443426772    0.8203512505   -0.3820513773
     C     3.2699823657    1.4164779730   -0.1624256820
     C     3.2832805590    2.7813030399    0.0332371680
     S     4.9502906879    3.3091686667   -0.0706796424
     C     5.5987888912    1.7219898645   -0.3544664026
     C     7.0031424381    1.4562339117   -0.5187258151
     C     7.5924506175    0.2438016110   -0.8165686989
     C     9.0051145161    0.3225693776   -0.9194504556
     C     9.4873254541    1.5832157528   -0.7011435455
     S     8.2164926651    2.6967550326   -0.3635078202
     C     2.2470768911    3.7735270210    0.2287742186
     C     2.2598979916    4.8519173437    1.0848682128
     C     1.1123470850    5.6801608956    0.9655819581
     C     0.2329252526    5.2328164616    0.0195427324
     S     0.8078962886    3.8081535081   -0.7567460003
     C     2.5683631998   -2.0919446426   -0.5644605336
     C     1.3041515226   -2.5141833370   -0.9228849401
     C     1.1950608200   -3.9167710368   -0.9967970993
     C     2.3738888639   -4.5715547746   -0.6978226294
     S     3.6327775152   -3.4371965302   -0.3175724653
     C     2.6275926561   -5.9899414548   -0.6816405764
     C     3.8495971331   -6.6410435731   -0.5988773146
     C     3.7381250766   -8.0377185456   -0.5972931049
     C     2.4256969559   -8.4865172338   -0.6764399664
     S     1.3316828084   -7.1304169424   -0.7644956671
     C     1.8714869937   -9.8031180235   -0.7917013253
     C     2.4041596048  -11.0187361927   -0.4635640738
     C     3.6825373883  -11.3300169402    0.2427168760
     O     4.2884873438  -12.3583882828    0.0487454062
     O     4.1283124350  -10.4486918383    1.1460804116
     C     1.6759090297  -12.1819365113   -0.8534085716
     N     1.0726274825  -13.1246381782   -1.1691986089
     H     0.3154846884    0.6115586062   -0.6139096278
     H     0.8712205836    1.2488975129    0.9525910813
     H     0.7090116463   -0.5002100689    0.7269385701
     H     7.0140769012   -0.6626660900   -0.9549524661
     H     9.6417798629   -0.5257684371   -1.1475883127
     H    10.5130863419    1.9285091833   -0.7159507946
     H     3.0647529783    5.0251701337    1.7921012784
     H     0.9382626686    6.5633001278    1.5710830261
     H    -0.7267909651    5.6490047515   -0.2599967120
     H     0.4903272538   -1.8424355065   -1.1684311704
     H     0.2835833292   -4.4308408677   -1.2848341279
     H     4.7985809462   -6.1161481892   -0.5670349976
     H     4.5973802286   -8.6982659054   -0.5876172987
     H     0.8768265541   -9.8405675313   -1.2338470183
     H     3.4948580893   -9.7235559673    1.2859494775
