77
-1.8394367386472513e+03 frame 77   xyz file generated by TeraChem
     N     2.6100567225    3.7255794175    0.9439629123
     C     3.1007873322    2.7261645028    0.6011041356
     C     3.7555298800    1.5080323833    0.2765536561
     C     3.5171438768    0.7634334127   -0.8394227993
     C     2.6281277392    0.9594147495   -1.9572748566
     C     1.8270544750    2.1018364671   -2.1637103247
     C     1.0100469287    2.1993761970   -3.2726833122
     C     0.9546464278    1.1560742063   -4.2208617436
     C     1.7503207607    0.0117547187   -4.0207420439
     C     2.5719720771   -0.0760943132   -2.9130670356
     C     0.1189772158    1.2634340626   -5.3593227568
     C    -0.5926601396    1.3587567849   -6.3437653193
     C    -1.4151892926    1.4684965982   -7.4947833005
     C    -2.0326666241    2.6966445949   -7.8074191341
     C    -2.8294624002    2.8244835791   -8.9366426825
     C    -3.0188885375    1.7137465006   -9.7616922439
     C    -2.4131850094    0.4792517901   -9.4527313984
     C    -1.6129876177    0.3508184109   -8.3339488311
     C    -2.7737166487   -0.5768731782  -10.4834879566
     C    -1.5216813203   -1.1384122595  -11.1959505015
     C    -0.6500384114   -0.0997177571  -11.8899537074
     C    -3.5452925007   -1.7541297759   -9.8450702359
     C    -4.8264106645   -1.3777689722   -9.1120202365
     C    -3.6539084307    0.2237166743  -11.4287644598
     C    -3.7839060613    1.5542880154  -10.9919533442
     C    -4.5502191550    2.4593118921  -11.7272986848
     C    -5.1851683642    2.0277807580  -12.8841168396
     C    -5.0534250435    0.6997115665  -13.3290755160
     C    -4.2741964376   -0.2060873416  -12.5885722938
     N    -5.6999409759    0.2821273953  -14.5080682009
     C    -6.2564615718   -1.0151989309  -14.5984073227
     C    -6.9590971465   -1.5653758627  -13.5183848358
     C    -7.5008147976   -2.8431015007  -13.6131609661
     C    -7.3687476128   -3.5841410967  -14.7867058971
     C    -6.6787099585   -3.0339043198  -15.8657105142
     C    -6.1180912416   -1.7639889311  -15.7740459893
     C    -5.7927354579    1.1588895041  -15.6156004465
     C    -4.6865226571    1.9215410584  -16.0103964149
     C    -4.7842055687    2.7864520518  -17.0954099372
     C    -5.9752023422    2.8913164377  -17.8127213706
     C    -7.0742447716    2.1254227755  -17.4263722024
     C    -6.9909403593    1.2711163691  -16.3316773136
     C     4.7777054456    0.9952017926    1.2427142744
     O     5.3944831618   -0.0301582706    1.0570866851
     O     5.0020953646    1.7169173379    2.3460998866
     H     4.1142453582   -0.1469773734   -0.8754822148
     H     1.8474759786    2.9255198415   -1.4593498183
     H     0.4020276647    3.0858263107   -3.4232975282
     H     1.7171994865   -0.7958009416   -4.7450944911
     H     3.1873893093   -0.9604681138   -2.7699319293
     H    -1.8731362453    3.5479706558   -7.1523240675
     H    -3.2949745844    3.7789919125   -9.1683774884
     H    -1.1350525779   -0.5936656243   -8.0862222898
     H    -1.8606167797   -1.8862317281  -11.9249190390
     H    -0.9278601697   -1.6831766920  -10.4497465477
     H    -1.2034494825    0.4192640084  -12.6799976760
     H     0.2224451348   -0.5765725644  -12.3491832656
     H    -0.2876205770    0.6525144622  -11.1810927370
     H    -2.8627381185   -2.2684210894   -9.1551233171
     H    -3.7775373975   -2.4742049830  -10.6413190431
     H    -4.6294535736   -0.6875313799   -8.2843008344
     H    -5.3024436826   -2.2716282115   -8.6947158251
     H    -5.5458326599   -0.8996378540   -9.7856827499
     H    -4.6688718599    3.4889958352  -11.3989183485
     H    -5.7982534813    2.7183113606  -13.4549853691
     H    -4.1642008455   -1.2299497853  -12.9359915352
     H    -7.0802601677   -0.9864966300  -12.6072894180
     H    -8.0439496295   -3.2543206447  -12.7661281915
     H    -7.7997622148   -4.5786817446  -14.8596889626
     H    -6.5616109554   -3.6012046800  -16.7854664134
     H    -5.5706196520   -1.3454773980  -16.6135797699
     H    -3.7525148224    1.8306182717  -15.4632664357
     H    -3.9166038070    3.3711976797  -17.3901498372
     H    -6.0457987780    3.5624579867  -18.6641240718
     H    -8.0113244662    2.2019535689  -17.9718625963
     H    -7.8537380625    0.6868971803  -16.0247379021
     H     4.4497939719    2.5169717505    2.3852389481
