35
-1.3916239508356759e+03 frame 46   xyz file generated by TeraChem
    Cl    -1.9222421312    0.7075874160   -0.7878738904
     C    -0.2028405982    0.5287600068   -0.5765596712
     C     0.2990617485    0.1725072345    0.6709395222
     C     1.6722304470    0.0323446796    0.8332657947
     C     2.5488789818    0.2487062184   -0.2381560720
     C     2.0163917846    0.6150989217   -1.4813577777
     C     0.6456250909    0.7497936864   -1.6579379744
     C     4.0011573325    0.0871248690   -0.0702138379
     C     4.8030646703   -0.4033562667   -1.0455895397
     N     6.1500004530   -0.5327799159   -0.7784564391
     N     7.0388906410   -0.9992232476   -1.6511193392
     C     8.2170802708   -0.9782856768   -0.9996606340
     C     8.0650931713   -0.4885871364    0.3126207434
     C     6.7169434799   -0.2110825566    0.4284601696
     C     5.8883657566    0.3204226478    1.4984216404
     O     6.3057668985    0.6581813225    2.5999892519
     N     4.5559937613    0.4268487906    1.1541341086
     C     9.4402265808   -1.4345950299   -1.6700568436
     C     9.3973346281   -1.8807023843   -2.9984636725
     C    10.5536298033   -2.3166910615   -3.6350209246
     C    11.7727051745   -2.3152785674   -2.9578208657
     C    11.8249549995   -1.8725396440   -1.6372433703
     C    10.6692070906   -1.4353199718   -0.9977847932
     H    -0.3741444384   -0.0041825103    1.5034595648
     H     2.0534056143   -0.2775610481    1.8027204185
     H     2.6802870619    0.8197606193   -2.3161502405
     H     0.2408986647    1.0391640407   -2.6223308107
     H     4.4644966126   -0.7368107463   -2.0156872153
     H     8.8151997905   -0.3517637808    1.0772422859
     H     3.9642356896    0.8520653477    1.8585705571
     H     8.4483738239   -1.8817951950   -3.5258173798
     H    10.5028830822   -2.6593235585   -4.6652536057
     H    12.6760446513   -2.6565819254   -3.4562582964
     H    12.7699707002   -1.8672891163   -1.1005994686
     H    10.7249755191   -1.0927314640    0.0317992986
