77
-1.8394342639780389e+03 frame 74   xyz file generated by TeraChem
     N     2.1206960560   -1.9129552740   -0.7044587162
     C     2.2542099271   -0.7730105533   -0.5077758867
     C     2.4079507015    0.6349196156   -0.3858345439
     C     2.5742873545    1.3081511795    0.7825583563
     C     2.6399164840    0.8575144202    2.1574981954
     C     2.5518265836   -0.4860014628    2.5698419178
     C     2.6209565187   -0.8037050100    3.9192819360
     C     2.7757913510    0.1924377972    4.8786516225
     C     2.8664315918    1.5415316349    4.4936121454
     C     2.7988667895    1.8570211590    3.1303841481
     C     3.0186608309    2.5714731445    5.4629840867
     C     3.1430141124    3.4595549594    6.2854657836
     C     3.2761985148    4.5049342376    7.2397749994
     C     3.2149125439    4.2193347451    8.6181443820
     C     3.3275713438    5.2330253774    9.5609920568
     C     3.5040602865    6.5476548710    9.1258302148
     C     3.5750040150    6.8415819079    7.7499798667
     C     3.4617926141    5.8355822300    6.8094090689
     C     3.7732058954    8.3304156883    7.5200527143
     C     5.0962610097    8.6247120332    6.7764030383
     C     6.3564022109    8.0988448095    7.4515079525
     C     2.6088083790    8.9468701160    6.7116274281
     C     1.2240894616    8.7645841366    7.3192203643
     C     3.8005806913    8.8464251857    8.9486716156
     C     3.6417001917    7.7954616546    9.8690001713
     C     3.6380941286    8.0614169859   11.2387260785
     C     3.7879163906    9.3708560792   11.6762475615
     C     3.9621815937   10.4242014765   10.7606540660
     C     3.9700976498   10.1498752411    9.3822582964
     N     4.1260487065   11.7445976301   11.2239936388
     C     3.5464554514   12.8229617513   10.5145323916
     C     2.2424795383   12.7231592896   10.0127971970
     C     1.6804186850   13.7826734969    9.3081886815
     C     2.3978876183   14.9615232217    9.1088768469
     C     3.6921574191   15.0658106569    9.6162461040
     C     4.2691896798   14.0044884191   10.3059553761
     C     4.8922281325   12.0021890094   12.3844079946
     C     6.0841475179   11.3038519953   12.6185085961
     C     6.8324648611   11.5594764517   13.7628292230
     C     6.4183030224   12.5238089328   14.6805223416
     C     5.2372147194   13.2257567331   14.4444553333
     C     4.4724261991   12.9641696142   13.3121687966
     C     2.3789277518    1.4415791876   -1.6504628395
     O     2.5170916634    2.6433211971   -1.6578024922
     O     2.1903397942    0.7823433915   -2.7971189438
     H     2.6697118953    2.3840852460    0.6418856042
     H     2.4303215862   -1.2834386893    1.8460540946
     H     2.5525564320   -1.8419419100    4.2300782369
     H     2.8276433470   -0.0642355322    5.9323953588
     H     2.8680139410    2.8968835674    2.8238887115
     H     3.0730761660    3.1908613259    8.9369962905
     H     3.2757235902    4.9977253503   10.6209755655
     H     3.5112311963    6.0507894567    5.7449785282
     H     5.1721976310    9.7128651442    6.6488304011
     H     5.0154993281    8.2026759257    5.7655024644
     H     6.4859751934    8.5328707738    8.4488701003
     H     7.2416387039    8.3520126773    6.8582256896
     H     6.3266223205    7.0090829677    7.5594320374
     H     2.6326093342    8.5100174659    5.7043021608
     H     2.8193175230   10.0176434571    6.5878791515
     H     0.9748453271    7.7041797056    7.4362411381
     H     0.4621293171    9.2181912618    6.6762731158
     H     1.1560739136    9.2379463328    8.3047026908
     H     3.5041463198    7.2621360812   11.9635458990
     H     3.7689173245    9.5917594910   12.7391148333
     H     4.1107268818   10.9620333909    8.6739642030
     H     1.6746665206   11.8122775363   10.1797786375
     H     0.6675077082   13.6891149958    8.9251154594
     H     1.9532233962   15.7897364114    8.5642662892
     H     4.2666260144   15.9757405331    9.4626830341
     H     5.2833160437   14.0845167120   10.6865358874
     H     6.4203681039   10.5628179557   11.8990771284
     H     7.7550164667   11.0089513647   13.9282356540
     H     7.0094006398   12.7260266321   15.5693000753
     H     4.8971050068   13.9757617005   15.1539309086
     H     3.5460121710   13.5046635995   13.1407195590
     H     2.0853116653   -0.1759066032   -2.6636628589
