58
-1.3418000236978064e+03 frame 84   xyz file generated by TeraChem
     N     1.1768721245   -0.1329307202   -0.5117009881
     C     2.2793175335   -0.0709698829   -0.1434980063
     C     3.6382513171   -0.0677291511    0.3006313033
     C     4.2178241735    1.0394537886    0.8412927238
     C     3.7298389160    2.3920523307    1.0534499907
     C     2.5102847838    2.9115052809    0.5768951398
     C     2.1428643531    4.2193507824    0.8523169414
     C     2.9624215355    5.0699334469    1.6076050546
     C     4.1798357885    4.5619981764    2.0701313509
     C     4.5565631492    3.2542073374    1.7970445057
     C     2.5352375962    6.4760375883    1.9142047470
     C     4.3480571243   -1.3584009485    0.1600724661
     C     3.6426107322   -2.5712998309    0.1428103411
     C     4.2982568533   -3.7877463189    0.0423259370
     C     5.6982524792   -3.8414784231   -0.0380727231
     C     6.4102013501   -2.6320123194   -0.0345108026
     C     5.7447975828   -1.4185154667    0.0482459257
     N     6.3633514454   -5.0738308729   -0.1311790582
     C     7.5795552578   -5.1795813894   -0.8443209401
     C     7.6972052920   -4.5649474568   -2.1214594194
     C     8.8591614331   -4.6716408070   -2.8400568997
     C     9.9666917068   -5.4058711863   -2.3421136517
     C     9.8467307109   -6.0340152823   -1.0650720503
     C     8.6437511744   -5.8940863618   -0.3326866060
     C    10.9505213548   -6.7682345666   -0.5587367628
     C    12.1134386991   -6.8763101062   -1.2839438042
     C    12.2287263436   -6.2580391101   -2.5506475889
     C    11.1762307528   -5.5386315274   -3.0668824938
     C     5.8621677702   -6.2081627388    0.5570085568
     C     5.8188490878   -7.4531567111   -0.0814828690
     C     5.3380240256   -8.5686488184    0.5958779148
     C     4.8791382773   -8.4562179930    1.9079244002
     C     4.9145402704   -7.2149721232    2.5410646033
     C     5.4106898339   -6.0972558141    1.8768156807
     H     5.2306193351    0.8852069304    1.2087031388
     H     1.8455117193    2.2991380535   -0.0211480611
     H     1.1972745667    4.5955293641    0.4680105450
     H     4.8419019343    5.2016130986    2.6491437648
     H     5.5098445872    2.8833360085    2.1668649618
     H     2.1479235056    6.9774395062    1.0204645279
     H     3.3652043877    7.0679584141    2.3108061675
     H     1.7311401388    6.4851476133    2.6610014163
     H     2.5575642353   -2.5664084723    0.2076577679
     H     3.7227873612   -4.7079365663    0.0260076531
     H     7.4934790760   -2.6435733128   -0.1039432044
     H     6.3299244231   -0.5036728291    0.0191911477
     H     6.8499633123   -4.0177599937   -2.5242078422
     H     8.9373882042   -4.2030424185   -3.8184376133
     H     8.5632296717   -6.3650957142    0.6434741284
     H    10.8597414784   -7.2443050028    0.4150235981
     H    12.9515463912   -7.4417122532   -0.8849325045
     H    13.1530347003   -6.3542957449   -3.1138694335
     H    11.2569214885   -5.0593804738   -4.0401048671
     H     6.1648339170   -7.5385158627   -1.1075596955
     H     5.3095122180   -9.5293172266    0.0883431990
     H     4.4981354884   -9.3282944447    2.4319365204
     H     4.5670020835   -7.1148962136    3.5659961988
     H     5.4520170258   -5.1338184285    2.3765795340
