58
-1.3417990673795966e+03 frame 59   xyz file generated by TeraChem
     N     5.0106611682    1.4693756639   -1.6506140790
     C     4.4099487702    0.6188269165   -1.1312679948
     C     3.7308123236   -0.4386619943   -0.4458317581
     C     2.3781175790   -0.5716538149   -0.5174893150
     C     1.3968177187    0.1669881376   -1.2985044480
     C     0.0475504137    0.1435212094   -0.8329018413
     C    -0.9446927946    0.8195596951   -1.4910308041
     C    -0.6644141706    1.5515609408   -2.6738761180
     C     0.6756623588    1.5605069125   -3.1693656582
     C     1.6812275882    0.8601367326   -2.4656324589
     C     0.9626446684    2.2731242093   -4.3634181837
     C    -0.0294314475    2.9514524554   -5.0287930247
     C    -1.3548642616    2.9454124427   -4.5338989780
     C    -1.6651353985    2.2594310171   -3.3830733823
     C     4.5893768484   -1.3240972709    0.3655494613
     C     4.1983979019   -2.6366606210    0.6723889691
     C     4.9912142656   -3.4607265554    1.4530068905
     C     6.2181047927   -3.0040354498    1.9648800044
     C     6.6219863516   -1.6972670003    1.6487959012
     C     5.8264441618   -0.8832394651    0.8584501541
     N     7.0209453418   -3.8357496888    2.7556479173
     C     8.4341911963   -3.7117083646    2.7299004440
     C     9.1170104558   -3.6073235571    1.5127503149
     C    10.5021141174   -3.4891416809    1.5124164315
     C    11.2156778777   -3.4931331358    2.7094708056
     C    10.5479265843   -3.6082747158    3.9324005551
     C     9.1545080809   -3.7056395703    3.9276567562
     C    11.3059910317   -3.6363008595    5.2311209564
     C     6.4399421319   -4.8291852562    3.5818501871
     C     6.9889923004   -6.1162183088    3.6237959694
     C     6.4333401954   -7.0869697401    4.4510268513
     C     5.3167678944   -6.7952359706    5.2331425847
     C     4.7646177364   -5.5158774294    5.1861723027
     C     5.3244996002   -4.5339238385    4.3751948897
     H     1.9497055142   -1.3254629414    0.1405837466
     H    -0.1830475703   -0.4171396912    0.0698187446
     H    -1.9652449664    0.7982042692   -1.1161888942
     H     2.6846800322    0.8610594227   -2.8794994820
     H     1.9834445865    2.2748546215   -4.7384237363
     H     0.2002603756    3.4969546105   -5.9400716860
     H    -2.1297063550    3.4863586414   -5.0705261272
     H    -2.6834112087    2.2505784103   -3.0011616406
     H     3.2764701010   -3.0382344557    0.2608867376
     H     4.6724007346   -4.4789942961    1.6514413277
     H     7.5624206908   -1.3157749635    2.0333109847
     H     6.1648313033    0.1265986929    0.6413367493
     H     8.5619782889   -3.6175525954    0.5793227605
     H    11.0311547624   -3.4056500625    0.5665430304
     H    12.2994586572   -3.4048323334    2.6965665492
     H     8.6162864995   -3.7773838385    4.8697539081
     H    12.3044959683   -3.2028800711    5.1188274197
     H    11.4317596065   -4.6662146661    5.5888374399
     H    10.7767320065   -3.0845387163    6.0151055728
     H     7.8513473427   -6.3485317305    3.0055490387
     H     6.8705234495   -8.0818279228    4.4734986706
     H     4.8817935969   -7.5572193277    5.8738238599
     H     3.8998110675   -5.2720251937    5.7977941713
     H     4.9021177513   -3.5333627617    4.3532968563
