33
-1.1665450798325382e+03 frame 27   xyz file generated by TeraChem
     C     0.9388799046    0.7319354846   -0.1247064032
     C     0.6288917988    0.7951935237    1.2047742538
     S     0.0221144115   -0.7076266265    1.7806491469
     C     0.1822264991   -1.4553950971    0.2163703328
     C     0.6847264789   -0.5486059164   -0.6875218531
     C    -0.1540044786   -2.8733880040    0.0336098542
     C     0.3157738683   -3.8056145847    0.9705089711
     C     0.0731979518   -5.1626080843    0.8357763835
     C    -0.6515466380   -5.6542858429   -0.2563472941
     C    -1.1629012887   -4.7306813007   -1.2121303750
     C    -0.9292657552   -3.3300313371   -1.0624973267
     C    -1.5234148811   -2.4429159984   -2.0215712329
     C    -2.2471257785   -2.9095967174   -3.0735892557
     C    -2.4573718380   -4.3114576262   -3.2734767920
     C    -1.9163543173   -5.2186620330   -2.3199646200
     C    -2.1357382363   -6.6179089405   -2.4783050318
     C    -1.5967804735   -7.5184350838   -1.5015812910
     C    -0.8904090811   -7.0557134657   -0.4370721190
     C    -2.8732196200   -7.0739090692   -3.5791026027
     C    -3.3930444090   -6.1783033534   -4.5084873884
     C    -3.1908454050   -4.8104644256   -4.3585096382
     H     1.3434097365    1.5686819130   -0.6844590264
     H     0.7177975773    1.6380844508    1.8783974330
     H     0.8969866392   -0.8056113400   -1.7201084029
     H     0.9125702685   -3.4518008975    1.8070434963
     H     0.4635169237   -5.8603733347    1.5725285131
     H    -1.4000430754   -1.3740351134   -1.8863234895
     H    -2.6921032964   -2.2142522324   -3.7815690397
     H    -1.7699328621   -8.5842420603   -1.6302558718
     H    -0.4889457441   -7.7444984514    0.3025100633
     H    -3.0367733923   -8.1423739820   -3.6978518077
     H    -3.9633958286   -6.5503415427   -5.3553162532
     H    -3.6024651948   -4.1118805187   -5.0830549366
