74
-2.1811009383354613e+03 frame 81   xyz file generated by TeraChem
     N     8.1961307494    2.9810377645    0.5135318297
     C     7.3745977021    2.1550009611    0.4884319377
     C     6.4456744973    1.0844531341    0.4039120367
     C     5.1909538783    1.0888116254    0.9396270031
     C     4.4658558567    2.0866199422    1.6825365373
     C     3.1878577893    1.7139258084    2.1580876390
     C     2.4028152334    2.5858664142    2.8960879475
     C     2.8964855525    3.8643822048    3.1638420290
     C     4.1660856260    4.2581134893    2.6875882157
     C     4.9463637887    3.3873682928    1.9584610223
     C     4.4774230763    5.6903215407    3.0831683042
     C     4.6415171734    6.5976872477    1.8403617444
     C     3.4577525430    6.6147401098    0.8823600614
     C     5.7611871176    5.7912573275    3.9367920642
     C     5.7635003646    4.9671700806    5.2182384286
     C     3.2330610425    6.0491354811    3.8734702649
     C     2.3184516180    4.9807481335    3.8991222072
     C     1.0945578871    5.1141671585    4.5586979747
     C     0.8006837017    6.3122590839    5.1945621409
     C     1.7081170149    7.3908419263    5.1779995026
     C     2.9338909750    7.2437834093    4.5038190192
     C     1.3702622593    8.6403838239    5.8551315513
     C     0.1279838232    9.1765521620    6.1115289747
     C     0.1756530408   10.4228047878    6.7808860977
     C     1.4550977726   10.8553057945    7.0536737287
     S     2.6090101785    9.6909780930    6.4708474721
     C     1.9346007802   12.0918186845    7.6790824511
     C     3.0323573646   12.7496125849    7.1013096175
     C     3.5389691938   13.9266965931    7.6241140129
     C     2.9599230814   14.5125894294    8.7562433174
     C     1.8524430658   13.8646479295    9.3740736547
     C     1.3414227358   12.6394993202    8.8468950672
     C     0.2676884875   12.0006120391    9.5529081910
     C    -0.2946957341   12.5604613169   10.6572414842
     C     0.1676546098   13.8102621858   11.1795391606
     C     1.2623332066   14.4490813355   10.5332967004
     C     1.7683369986   15.6745994404   11.0559588694
     C     2.8811305582   16.3001868628   10.4037308982
     C     3.4520321057   15.7414114664    9.3044109481
     C     1.1679053297   16.2329072061   12.1925900671
     C     0.0920047883   15.6038974108   12.8116233590
     C    -0.4041545069   14.4037018964   12.3135353020
     C     6.8873339829   -0.1475434450   -0.3186196697
     O     6.1791218451   -1.1208393028   -0.4507873074
     O     8.1230267882   -0.1495280350   -0.8330960194
     H     4.6574296611    0.1544964012    0.7687587652
     H     2.8208954202    0.7142554006    1.9395857643
     H     1.4253764825    2.2747559522    3.2543127109
     H     5.9182340572    3.7080041361    1.5978515601
     H     5.5451322295    6.2734603246    1.3071729173
     H     4.8438494538    7.6160779930    2.1975018542
     H     3.2532335226    5.6162977086    0.4807732919
     H     3.6624056342    7.2791082408    0.0361346165
     H     2.5474516958    6.9730169249    1.3753205514
     H     5.9171445427    6.8505544563    4.1806919180
     H     6.6073683521    5.4943147265    3.3031714362
     H     4.9570304260    5.2751878421    5.8924006851
     H     6.7120153378    5.0966597469    5.7499906512
     H     5.6408278508    3.8986535644    5.0097617142
     H     0.3826478241    4.2933091351    4.5887931115
     H    -0.1365234317    6.4173576850    5.7332864116
     H     3.6326342445    8.0767606323    4.4616631126
     H    -0.7953884148    8.7055966667    5.7900697759
     H    -0.7068101555   11.0090470494    7.0138725796
     H     3.4766954966   12.3351615924    6.2004294511
     H     4.3835796891   14.4156179719    7.1452484551
     H    -0.0872433531   11.0383729166    9.2016844428
     H    -1.1042874106   12.0519410093   11.1754197404
     H     3.2605024407   17.2339165413   10.8118315271
     H     4.2978324869   16.2184692096    8.8152299785
     H     1.5566755849   17.1687504510   12.5867724706
     H    -0.3608836919   16.0516443433   13.6920686666
     H    -1.2403190147   13.9094745382   12.8022466609
     H     8.5944255623    0.6849886104   -0.6646564064
