41
-1.5243806758905434e+03 frame 34   xyz file generated by TeraChem
     N     6.5135235726   -0.7643168479   -0.6691977114
     C     5.7221450996   -1.2594077166   -1.3668444275
     C     4.7815735738   -1.8116697257   -2.2724099334
     C     3.9390033717   -2.8431831380   -1.9601559550
     C     3.7929852444   -3.5604464364   -0.7421132947
     C     4.4457177402   -3.4472341243    0.4809406215
     C     3.9823329618   -4.3550911583    1.4416501310
     C     2.9704599384   -5.1858973782    0.9796111100
     S     2.5904917556   -4.8210389147   -0.6614332331
     C     2.2937135659   -6.2837362453    1.6733748469
     C     2.1429320547   -7.5085029123    1.0045584317
     C     1.5683864402   -8.6060888467    1.6212230509
     C     1.1130203944   -8.5255440461    2.9434995175
     C     1.2235853396   -7.2856388989    3.6360264897
     C     1.8058165671   -6.1487955880    2.9986829240
     C     1.8287815059   -4.9090432180    3.7197768943
     C     1.3614538093   -4.8173273872    4.9936388678
     C     0.8165636105   -5.9522480060    5.6736803664
     C     0.7413026965   -7.1882633471    4.9737786482
     C     0.1769850499   -8.3272078551    5.6172767765
     C     0.0950914789   -9.5619081692    4.8941279688
     C     0.5395304616   -9.6548455654    3.6131046735
     C    -0.2844611884   -8.2088800072    6.9350625574
     C    -0.2022781832   -6.9958796405    7.6123075915
     C     0.3398816237   -5.8766518719    6.9897355339
     C     4.6965976592   -1.2404589313   -3.6463503991
     O     3.9205923001   -1.6544366543   -4.4800813452
     O     5.5178829121   -0.2273811604   -3.9482253489
     H     3.2903108978   -3.1360538246   -2.7846575868
     H     5.2439743186   -2.7389991911    0.6694073352
     H     4.3974215613   -4.4368284697    2.4400560324
     H     2.5236780465   -7.6053433781   -0.0086207357
     H     1.4833531453   -9.5479589312    1.0856213520
     H     2.2103630884   -4.0215465822    3.2268903422
     H     1.3858310906   -3.8636892423    5.5155471144
     H    -0.3366194766  -10.4258619478    5.3937035092
     H     0.4684741760  -10.5934400698    3.0689393252
     H    -0.7112896809   -9.0811418149    7.4242358002
     H    -0.5668714636   -6.9225098601    8.6332069929
     H     0.3986541405   -4.9283894848    7.5183227496
     H     6.0844474668    0.0268204149   -3.1993492139
