78
-2.9366512256296037e+03 frame 87   xyz file generated by TeraChem
     N    10.9085458201   -5.8809244802   -6.4574760657
     C    10.4453386471   -5.1567620614   -5.6705401276
     C     9.9498148030   -4.2391342202   -4.7103766169
     C     8.6771170452   -4.2725277541   -4.2087403875
     C     7.6102753173   -5.1633385535   -4.4998919556
     C     7.5199779883   -6.2437445497   -5.3720671302
     C     6.2690740519   -6.8663334019   -5.3548203622
     C     5.3706202393   -6.2796211354   -4.4696342385
     S     6.0980363746   -4.9430595680   -3.6555176031
     C     4.0117508154   -6.6677920317   -4.1998099290
     C     3.0840853887   -6.0567515173   -3.3761219594
     C     1.8436051219   -6.7172815641   -3.3461363054
     C     1.8114650167   -7.8402701497   -4.1469319065
     S     3.3311042915   -8.0855703637   -4.9404801276
     C     0.6842260656   -8.7293742176   -4.3117871047
     N     0.6750113901   -9.7866920959   -5.1950200483
     C    -0.5515561378  -10.3981085828   -5.0670106941
     C    -1.2291226147   -9.6387977838   -4.0671972088
     N    -0.4302929527   -8.6121696506   -3.6160611138
     C    -2.5143388241  -10.0905607529   -3.7999272978
     S    -2.8220596202  -11.4679700678   -4.8209077207
     C    -1.2625801339  -11.4426504008   -5.6109540931
     C    -0.9035760861  -12.4223988719   -6.6266817317
     C    -1.8742450515  -13.0918782325   -7.3838692364
     C    -1.5162175457  -14.0346448043   -8.3423830568
     C    -0.1776777249  -14.3456180261   -8.6036284781
     C     0.7895760774  -13.6672289361   -7.8466632660
     C     0.4432684030  -12.7367445199   -6.8780688423
     C     0.2533713459  -15.3704248767   -9.6528398137
     C    -0.9421854434  -16.0255004763  -10.3501071036
     C     1.1135482148  -14.6745250079  -10.7210727827
     C     1.0816518383  -16.4764736207   -8.9778500987
     C    -3.5042380607   -9.5918196160   -2.8592769677
     C    -3.1919885518   -8.5330515033   -1.9916280589
     C    -4.1304807855   -8.0512766390   -1.0847823626
     C    -5.4166199039   -8.5940067277   -0.9936579912
     C    -5.7213117789   -9.6518132900   -1.8646987197
     C    -4.7964749519  -10.1392514328   -2.7742332807
     C    -6.4717415754   -8.0863069652   -0.0115737389
     C    -5.9542152250   -6.9368148771    0.8570691779
     C    -7.6962387689   -7.5851442964   -0.7961735553
     C    -6.9032020167   -9.2324772756    0.9181424741
     C    10.8634906268   -3.1732391944   -4.2093977596
     O    10.5180099435   -2.3485259604   -3.3914423152
     O    12.1096675700   -3.1478219539   -4.6973252585
     H     8.4804160778   -3.4893754101   -3.4775936255
     H     8.3365510289   -6.5692507322   -6.0053753013
     H     6.0169679825   -7.7210334623   -5.9740381658
     H     3.2956061282   -5.1531599751   -2.8131866281
     H     0.9878580712   -6.3943412822   -2.7651773034
     H     1.3830634174   -9.9983880015   -5.8833390969
     H    -2.9275949837  -12.8650814360   -7.2351576754
     H    -2.3093680749  -14.5237675096   -8.8986324493
     H     1.8443961543  -13.8783600301   -8.0038533888
     H     1.2296805287  -12.2739802567   -6.2876477072
     H    -1.5565624680  -15.2901652032  -10.8821668704
     H    -1.5827685378  -16.5614774784   -9.6402736390
     H    -0.5791416150  -16.7514994391  -11.0860895447
     H     0.5448889627  -13.8852537431  -11.2258552101
     H     1.4342991310  -15.4027998406  -11.4754954899
     H     2.0107282179  -14.2229996824  -10.2844090989
     H     0.4926748366  -16.9916719304   -8.2105222402
     H     1.9830987283  -16.0748817334   -8.5034061460
     H     1.3951404816  -17.2164744128   -9.7238698361
     H    -2.2032455662   -8.0863953468   -2.0319344145
     H    -3.8387715611   -7.2315253042   -0.4357261590
     H    -6.7078804500  -10.1075452225   -1.8368055909
     H    -5.0880450867  -10.9559924552   -3.4312970174
     H    -5.6597548132   -6.0708750554    0.2530772520
     H    -5.0942251277   -7.2426036525    1.4639574553
     H    -6.7470082020   -6.6125445240    1.5403902009
     H    -7.4266751108   -6.7429248047   -1.4437065917
     H    -8.4747307757   -7.2480115369   -0.1012389326
     H    -8.1240499048   -8.3742365531   -1.4233973350
     H    -6.0550298638   -9.5985525929    1.5082463176
     H    -7.3183315362  -10.0780682348    0.3591488747
     H    -7.6748068339   -8.8781657038    1.6121542084
     H    12.2669825038   -3.8554430767   -5.3459887977
