81
-2.6159516672574518e+03 frame 75   xyz file generated by TeraChem
     N     9.1885050543    3.9928592989   -2.0369453998
     C     8.3768178077    3.1905445434   -1.8015263159
     C     7.4189111213    2.2089341092   -1.4426237660
     C     6.4684130030    1.7236901966   -2.2977160441
     C     6.2048285725    2.0644060490   -3.6520597296
     C     6.7893521913    2.9958777312   -4.5034085652
     C     6.2047672827    3.0253811242   -5.7742288265
     C     5.1618529521    2.1207027770   -5.9297858906
     S     4.9184292849    1.2250256298   -4.4760017936
     C     4.3378902980    1.8995520487   -7.1131106023
     C     4.7244982270    2.4286879563   -8.3553289498
     C     3.9438393813    2.2397009907   -9.4844635396
     C     2.7510427412    1.5071417790   -9.4150262602
     C     2.3653808401    0.9688884671   -8.1786868960
     C     3.1416012348    1.1640020679   -7.0507496110
     C     1.8916338699    1.2937957176  -10.5763875032
     N     2.1893119010    1.7845984888  -11.8282581944
     C     1.1639422651    1.4061314615  -12.6630951667
     C     0.2695320316    0.6789993660  -11.8238905741
     N     0.7514105857    0.6333083539  -10.5342526253
     C    -0.8468448874    0.1910486344  -12.4884880697
     S    -0.7276334463    0.6666233718  -14.1598834239
     C     0.7960464329    1.5070075094  -13.9861910051
     C     1.4446145191    2.1597002909  -15.1145237731
     C     2.3710030768    3.1925480808  -14.9132091447
     C     3.0058406557    3.8115189170  -15.9857769416
     C     2.7387855332    3.4461557348  -17.3089922034
     C     1.7997319715    2.4216068921  -17.5043152720
     C     1.1729411803    1.7879324031  -16.4421478815
     C     3.4072964001    4.1135875084  -18.5119349925
     C     4.4264472441    5.1757474673  -18.0915439039
     C     4.1354675513    3.0503024076  -19.3504117098
     C     2.3301230934    4.7889732959  -19.3774137866
     C    -1.9628144150   -0.5953795473  -11.9877721626
     C    -1.9381196659   -1.1121408311  -10.6827201308
     C    -2.9943832336   -1.8747178533  -10.1947823097
     C    -4.1206099068   -2.1604607910  -10.9739457755
     C    -4.1406111972   -1.6346597901  -12.2752760150
     C    -3.0950193550   -0.8733291283  -12.7732945857
     C    -5.2995399975   -2.9921900183  -10.4679541837
     C    -5.0710080521   -3.5214358204   -9.0496213316
     C    -6.5650631856   -2.1180426451  -10.4602936339
     C    -5.5188179764   -4.1942914184  -11.4002141139
     C     7.4374540641    1.6698883575   -0.0525467946
     O     6.6530052138    0.8301281541    0.3318682456
     O     8.3629732823    2.1501294338    0.7866438517
     H     5.8273163564    0.9666635604   -1.8477908446
     H     7.6065818396    3.6441240204   -4.2097761754
     H     6.5209620808    3.7066938554   -6.5558055663
     H     5.6510357463    2.9861424208   -8.4465094732
     H     4.2826354956    2.6726139270  -10.4212055845
     H     1.4412502331    0.4038355167   -8.1167478477
     H     2.8016627342    0.7508438965   -6.1043580166
     H     3.0374974207    2.2594853378  -12.0962473062
     H     2.5808187080    3.5456983178  -13.9073230362
     H     3.7137376977    4.6051722970  -15.7698248332
     H     1.5541315635    2.0976061010  -18.5127099440
     H     0.4729339736    0.9807952577  -16.6458710065
     H     5.2291410117    4.7470386207  -17.4805333154
     H     3.9569429856    5.9873654572  -17.5240676448
     H     4.8849442176    5.6165503880  -18.9839181298
     H     4.9217304552    2.5604716551  -18.7646026265
     H     4.6013956042    3.5199844849  -20.2249154592
     H     3.4477920380    2.2784012869  -19.7106747470
     H     1.8106836031    5.5713225830  -18.8124142212
     H     1.5839777408    4.0670907631  -19.7256349700
     H     2.7922255400    5.2504279754  -20.2584239798
     H    -1.0796500292   -0.9126678834  -10.0486610653
     H    -2.9252630239   -2.2542495576   -9.1803497597
     H    -4.9956640539   -1.8209737841  -12.9203621280
     H    -3.1652045809   -0.4837024048  -13.7866692968
     H    -4.9531760342   -2.7073672025   -8.3252719360
     H    -4.1844068309   -4.1637800833   -8.9937106966
     H    -5.9358468932   -4.1187861634   -8.7399115281
     H    -6.4416082057   -1.2613218638   -9.7880709642
     H    -7.4261186472   -2.7033321698  -10.1153168759
     H    -6.7965070796   -1.7351429109  -11.4600368399
     H    -4.6353387122   -4.8429203890  -11.4169035201
     H    -5.7289662752   -3.8803377331  -12.4280560310
     H    -6.3718491553   -4.7886341948  -11.0509695349
     H     8.9341806074    2.8166304281    0.3669872442
