109
-3.7211453283503033e+03 frame 76   xyz file generated by TeraChem
     N     4.6866099992    1.9411761696    1.9951296856
     C     4.2860546959    1.3180783184    1.0954736196
     C     3.8156629243    0.4928246879    0.0429632912
     C     3.2981640970    0.9716675173   -1.1294160648
     C     3.1140464534    2.3141056054   -1.5571287642
     C     3.3851889488    3.5274283397   -0.9342073627
     C     3.0480075524    4.6395658419   -1.7126865731
     C     2.5035550129    4.3091917240   -2.9493038962
     S     2.4340184279    2.5912750048   -3.1385360813
     C     2.0210864365    5.1941054666   -3.9943849016
     C     1.2313187847    4.7444555043   -5.0384683579
     C     0.7532694072    5.5766068286   -6.0694828197
     C     1.0155484754    6.9344101179   -6.1412450141
     C     1.8348267729    7.4525779005   -5.0794989610
     C     2.3283683470    6.5959425187   -4.0201247584
     N     3.0703336212    7.2509294234   -3.1257619097
     S     3.1215405049    8.8052189310   -3.5935849746
     N     2.2186023198    8.7225378436   -4.9391459107
     C     0.4881691243    7.7740309534   -7.2024750963
     C     0.8163975384    9.0708378785   -7.5407972670
     C     0.0926613063    9.5645083280   -8.6527849620
     C    -0.7964449461    8.6593390834   -9.1754402827
     S    -0.7442933686    7.1733600945   -8.2829121888
     C    -1.7229554535    8.8305369393  -10.3131665341
     C    -1.3263635205    8.4514016201  -11.6123534976
     C    -0.0330488835    7.9119129039  -11.8664932381
     C     0.4114407357    7.5962092244  -13.1281214274
     C    -0.4719886627    7.8486057276  -14.2173392142
     C    -1.7311606262    8.3476669334  -14.0221130694
     C    -2.2252950211    8.6430559318  -12.7196457362
     C    -3.5249380475    9.1428619102  -12.4903924871
     C    -3.9213258452    9.5232766074  -11.1890979881
     C    -3.0000438291    9.3808925700  -10.0973085489
     C    -3.4388183264    9.7907723722   -8.8019366220
     C    -4.6972043370   10.2762175761   -8.5970674944
     C    -5.6431124801   10.3856109383   -9.6638489454
     C    -5.2357116535   10.0125403633  -10.9193464523
     C    -7.0474742533   10.9006843737   -9.3614385778
     C    -6.9522484652   12.3229705083   -8.7839707798
     C    -7.9336244237   10.9484665317  -10.6080101494
     C    -7.7148442109    9.9765528135   -8.3285382906
     N    -4.4492896132    9.3007058586  -13.5634707488
     C    -4.7925544825    8.2176271668  -14.4164627486
     C    -4.7217532985    8.3865223854  -15.7888751969
     C    -5.0360680747    7.3426608495  -16.6780130485
     C    -5.4004310943    6.1084639358  -16.1991883441
     C    -5.5044907335    5.8920874836  -14.8039060250
     C    -5.2286068991    6.9584246881  -13.8866097465
     C    -5.4392945767    6.7186710372  -12.5036453964
     C    -5.8537894645    5.4894066083  -12.0484182146
     C    -6.0810557079    4.4270561125  -12.9502584871
     C    -5.9154330454    4.6316147235  -14.2972236518
     C    -4.8109630692   10.6184235142  -13.9406862739
     C    -3.9190298213   11.6821306586  -13.7651286032
     C    -4.2993504846   12.9793159667  -14.1001765288
     C    -5.5624983258   13.2358688453  -14.6271639671
     C    -6.4503565138   12.1746957278  -14.8096723896
     C    -6.0861756472   10.8787489107  -14.4641624475
     C     1.8069207603    6.9962529101  -13.3245330897
     C     1.8795415022    5.6477909042  -12.5901822185
     C     2.1360865360    6.7561267905  -14.8011180816
     C     2.8666449097    7.9476489302  -12.7456463501
     C     3.8855485965   -0.9860359623    0.2171043315
     O     3.5036135969   -1.7633336385   -0.6303859410
     O     4.3951692910   -1.4500135899    1.3646928253
     H     2.9894285967    0.1873280081   -1.8195121011
     H     3.8096543203    3.6071305297    0.0595525816
     H     3.1838271855    5.6645920709   -1.3944322462
     H     0.9426417999    3.6971496693   -5.0768485039
     H     0.1486959016    5.1083285230   -6.8413768308
     H     1.5601444853    9.6436610333   -7.0024019430
     H     0.2186564084   10.5612006658   -9.0625769130
     H     0.6201313279    7.7629193949  -11.0119502816
     H    -0.1466751085    7.6489711628  -15.2329482185
     H    -2.3677231900    8.5297241366  -14.8789893862
     H    -2.7471136620    9.7119497662   -7.9684841604
     H    -4.9862751226   10.5769868805   -7.5936910187
     H    -5.9216941446   10.0753465645  -11.7545999036
     H    -6.4946075698   13.0076228002   -9.5072342640
     H    -6.3599635286   12.3551212046   -7.8629566742
     H    -7.9556880069   12.6967699799   -8.5475571718
     H    -7.5212981391   11.6134082915  -11.3756685119
     H    -8.9243562089   11.3274563004  -10.3336227988
     H    -8.0665416992    9.9543019120  -11.0501886123
     H    -7.1385229908    9.9176811553   -7.3990660238
     H    -7.8228294355    8.9607251511   -8.7257124631
     H    -8.7136255524   10.3544241953   -8.0794256280
     H    -4.3983598492    9.3444913811  -16.1856712542
     H    -4.9615176343    7.5193134215  -17.7476059012
     H    -5.6251507285    5.2886318950  -16.8768969345
     H    -5.2863875026    7.5204302760  -11.7925171328
     H    -6.0145270224    5.3373061108  -10.9844195100
     H    -6.3994013747    3.4572548542  -12.5772063755
     H    -6.1073418846    3.8295899102  -15.0065042988
     H    -2.9268687018   11.4902928055  -13.3673752283
     H    -3.5924265461   13.7925862260  -13.9569122340
     H    -5.8536251399   14.2483978619  -14.8920015284
     H    -7.4431309742   12.3573065435  -15.2130786085
     H    -6.7869675718   10.0592183532  -14.5934383206
     H     1.1355110846    4.9465169742  -12.9854478835
     H     1.6988880309    5.7642023364  -11.5160866329
     H     2.8728854719    5.2015192225  -12.7212138811
     H     1.4345452043    6.0553558292  -15.2680650609
     H     3.1394176307    6.3232120479  -14.8812992723
     H     2.1286441699    7.6879353097  -15.3784843350
     H     2.7181885502    8.1184186964  -11.6741336721
     H     2.8389143089    8.9196107217  -13.2515142830
     H     3.8674472663    7.5204987733  -12.8820543834
     H     4.6654188232   -0.7332912703    1.9646575374
