61
-1.4559980410825183e+03 frame 94   xyz file generated by TeraChem
     N     2.3283341231    1.8314234630    1.2401503460
     C     2.8208735165    1.0700373556    0.5110219210
     C     3.4422409764    0.1901159056   -0.4317783490
     C     3.2146246149   -1.1515014190   -0.3964132167
     C     2.4560240841   -1.9606448801    0.5462359256
     C     2.0402245946   -3.2520212714    0.1009373185
     C     1.3135013519   -4.0849142102    0.9089234368
     C     0.9633031179   -3.6950573921    2.2276398690
     C     1.3934207251   -2.4164634006    2.6974226297
     C     2.1382161672   -1.5754105204    1.8406867176
     C     1.0627487631   -2.0229506724    4.0211143614
     C     0.3342466162   -2.8543269473    4.8365492451
     C    -0.0936123784   -4.1190867093    4.3682952405
     C     0.2155608893   -4.5303622785    3.0928653470
     C     4.2896834992    0.8498014995   -1.4464622504
     C     4.1331299818    2.2120747700   -1.7403514482
     C     4.9157367663    2.8424632879   -2.6953306209
     C     5.8903779985    2.1272549458   -3.4058210802
     C     6.0559570175    0.7632287159   -3.1149116311
     C     5.2806201119    0.1449092218   -2.1488491206
     N     6.6841617294    2.7565528536   -4.3786692463
     C     8.0408658221    2.3948923974   -4.5477982502
     C     8.5714431433    2.2922441024   -5.8629692280
     C     9.8782622605    1.9293534014   -6.0592497621
     C    10.7316112175    1.6340945978   -4.9646405151
     C    10.1994479657    1.7320391125   -3.6428171337
     C     8.8529406285    2.1287791870   -3.4638718096
     C    11.0471388995    1.4420655913   -2.5421283741
     C    12.3545631684    1.0677609119   -2.7431507285
     C    12.8781427703    0.9654134175   -4.0529155695
     C    12.0818019954    1.2440666459   -5.1391616732
     C     6.1578001935    3.8218525118   -5.1500341109
     C     6.9115396429    4.9827066099   -5.3569879820
     C     6.4012999351    6.0169843331   -6.1360179072
     C     5.1316609546    5.9162039356   -6.7017112431
     C     4.3767151778    4.7629597935   -6.4883702104
     C     4.8859227460    3.7168301705   -5.7268635800
     H     3.6386131527   -1.7174176152   -1.2237018822
     H     2.3038025007   -3.5656655174   -0.9062497966
     H     0.9984278160   -5.0617083802    0.5498194881
     H     2.4754922067   -0.6224728020    2.2349218135
     H     1.3947027061   -1.0494973754    4.3742889035
     H     0.0831496556   -2.5435357090    5.8470205891
     H    -0.6686218835   -4.7669926493    5.0243969332
     H    -0.1102664479   -5.5024959897    2.7301398545
     H     3.3894518938    2.7984069463   -1.2069188337
     H     4.7740777916    3.9008052936   -2.8900472819
     H     6.8101063830    0.1888978632   -3.6435316305
     H     5.4619876376   -0.9042090604   -1.9340012899
     H     7.9238362185    2.4953206743   -6.7106825689
     H    10.2728906503    1.8470288680   -7.0694091967
     H     8.4585890529    2.2141819395   -2.4547198538
     H    10.6430163553    1.5204446670   -1.5353379248
     H    12.9928904510    0.8469157880   -1.8916270241
     H    13.9127562396    0.6659350240   -4.1967782802
     H    12.4776118271    1.1687191299   -6.1496178802
     H     7.8945570770    5.0694321721   -4.9031169704
     H     6.9975790998    6.9126589831   -6.2893641006
     H     4.7336516868    6.7281112463   -7.3038929979
     H     3.3883898671    4.6684956621   -6.9306107002
     H     4.3042717573    2.8121063563   -5.5749229448
