62
-1.8539933021477937e+03 frame 104   xyz file generated by TeraChem
     N     0.9014669057    1.9440246492    0.8876962761
     C     1.8806549622    1.3263949882    0.7698187565
     C     3.1151737850    0.6254231008    0.5992873629
     C     3.3337263671   -0.5944820599    1.1609505973
     C     2.4662724138   -1.4653851090    1.9372146087
     C     1.0664488629   -1.3516723062    2.0282343502
     C     0.3334188064   -2.2290977223    2.8100727541
     C     0.9555274142   -3.2613509641    3.5298351438
     C     2.3485019691   -3.3883036385    3.4291519147
     C     3.0829733433   -2.5140019918    2.6446607609
     C     0.1736119061   -4.1928767649    4.3562368255
     C    -1.1534241443   -4.5050855143    4.1365125433
     S    -1.7571922006   -5.6244772644    5.2725464590
     C    -0.2221906391   -5.7214745908    6.0931934774
     C     0.6938712983   -4.8943065380    5.4790044889
     C    -0.1323087328   -6.5454851386    7.2739343638
     C     0.9769126028   -6.9202140645    7.9655970480
     C     2.3974867207   -6.6705692127    7.6037774830
     C     3.2505892738   -6.0132853913    8.4970980365
     C     4.5842776383   -5.7933985472    8.1619688878
     C     5.0806600620   -6.2390306211    6.9387623117
     C     4.2397392494   -6.9119691116    6.0523155153
     C     2.9061991301   -7.1307760035    6.3830755624
     C     0.7671363694   -7.6518088380    9.1753199060
     N     0.6252664420   -8.2437525905   10.1678367281
     C     4.1485532709    1.3408688510   -0.1828564677
     C     5.1331802418    0.6408072317   -0.8944279771
     C     6.1234464609    1.3179961255   -1.5913377787
     C     6.1664509839    2.7199596797   -1.6195130430
     C     5.1645508652    3.4152043081   -0.9276462133
     C     4.1740905235    2.7417250568   -0.2266203858
     C     7.2297345028    3.4386680832   -2.3526831710
     C     7.7644213027    2.9297586193   -3.5435206230
     C     8.7750509055    3.6053181876   -4.2202512127
     C     9.2895718755    4.8121143120   -3.7379812428
     C     8.7559130963    5.3194952417   -2.5473928725
     C     7.7455930054    4.6503824766   -1.8686158010
     C    10.3681784360    5.5542720055   -4.4759182613
     H     4.3455510714   -0.9786017042    1.0438823127
     H     0.5384647096   -0.5784060688    1.4821893458
     H    -0.7437351914   -2.1021753322    2.8745299816
     H     2.8600445836   -4.1924141843    3.9508457842
     H     4.1610382700   -2.6376511525    2.5746194923
     H    -1.7938755476   -4.1536189478    3.3372563911
     H     1.7040835126   -4.7652623299    5.8467166958
     H    -1.0856868137   -6.8905243172    7.6699286134
     H     2.8652426893   -5.6668743856    9.4528838868
     H     5.2359052847   -5.2744476823    8.8596057332
     H     6.1222375751   -6.0699311240    6.6793258309
     H     4.6256026384   -7.2768543233    5.1041902030
     H     2.2519506913   -7.6603959908    5.6959150790
     H     5.1195932375   -0.4452890839   -0.9167124844
     H     6.8846613943    0.7460880101   -2.1150042631
     H     5.1482371934    4.5014058518   -0.9515332943
     H     3.4129601565    3.3136489872    0.2979786906
     H     7.3723059882    2.0041971019   -3.9573147040
     H     9.1687261129    3.1903649959   -5.1456559890
     H     9.1465191535    6.2503566367   -2.1414036757
     H     7.3711039597    5.0577117278   -0.9329945812
     H    10.8412765709    4.9231482461   -5.2343317866
     H    11.1455572875    5.9099661061   -3.7908743709
     H     9.9606196937    6.4367425138   -4.9852870324
