213
-6.0985833910785477e+03 frame 150   xyz file generated by TeraChem
     C     7.4859053666    7.7324728346   -6.1829129697
     N     7.6250305025    6.4294903433   -6.8052207079
     C     7.9333453791    5.3363479063   -5.9812731571
     C     7.8295967700    5.4017088329   -4.5845048686
     C     8.1880174329    4.3223994511   -3.7890738173
     C     8.6313674244    3.1144178100   -4.3480461417
     C     8.7122232001    3.0443881973   -5.7484271323
     C     8.3818467278    4.1309011091   -6.5477084152
     S     8.6189092185    4.0510518812   -8.3015515582
     C     7.2629947099    5.0785229397   -8.7969081181
     C     6.9347476178    6.1950463136   -8.0082941140
     C     5.9197793918    7.0493251471   -8.4561634467
     C     5.2742276288    6.8097468903   -9.6673583314
     C     5.6015874550    5.6983504654  -10.4374704267
     C     6.5895469565    4.8237309186   -9.9882437372
     C     9.0143777537    1.9533183482   -3.5486124484
     C     8.7030542581    1.7542094394   -2.2515320765
     C     9.1150759529    0.6271444259   -1.4224513874
     C    10.1569183332   -0.2509966217   -1.7705126608
     C    10.5314443105   -1.2937159225   -0.9394268258
     C     9.8675938089   -1.5143607478    0.2787436281
     C     8.8208701874   -0.6519317506    0.6341829295
     C     8.4687979314    0.4020573247   -0.1954679607
     N    10.2600463373   -2.5631260409    1.1326683621
     C    10.2267065634   -2.3951445844    2.5349781513
     C     9.7891263187   -3.4428351312    3.3595774400
     C     9.7620761090   -3.2950847244    4.7360447888
     C    10.1584771782   -2.0932831310    5.3517644951
     C    10.5839992860   -1.0506488460    4.5109480133
     C    10.6277443052   -1.1940979600    3.1315748412
     C    10.1461862456   -1.8774317674    6.7946795200
     C     9.8108110930   -2.7798177337    7.7391572986
     C     9.7885343548   -2.5665888343    9.1824687345
     C    10.1382933505   -1.3597457172    9.8082994328
     C    10.0797593023   -1.2134403355   11.1869905290
     C     9.6988421424   -2.2811231087   12.0142707920
     C     9.3610867544   -3.4960404102   11.3943531422
     C     9.3863157393   -3.6256567442   10.0127685141
     S     8.9980388095   -4.9002013639   12.4098363879
     C     8.1473577261   -4.0574202436   13.7147360886
     C     8.5974456461   -2.7848092638   14.1081455342
     N     9.6540026964   -2.1679290691   13.4119136807
     C    10.2899243453   -1.0155307826   14.0220771390
     C     7.9688612727   -2.1686235270   15.1976783876
     C     6.9431050569   -2.8152371554   15.8843155174
     C     6.4995853271   -4.0704262899   15.4804929567
     C     7.0973046584   -4.6827434946   14.3807761451
     C    10.7746642769   -3.7630040467    0.5973727855
     C    11.9153105225   -4.3575130002    1.1519496241
     C    12.4241494395   -5.5288806203    0.6126001317
     C    11.8251698330   -6.1545620530   -0.4947010439
     C    10.6785821271   -5.5457941806   -1.0396440389
     C    10.1598236683   -4.3788137960   -0.5043279759
     C    12.4273439277   -7.3734074523   -1.0173693801
     C    11.9139551040   -8.1718780675   -1.9810330797
     C    12.5016928804   -9.3774696458   -2.5286294018
     C    11.7970277269  -10.1171441433   -3.4692901507
     C    12.2784772327  -11.2963851948   -4.0756479602
     C    13.5185610983  -11.8397454306   -3.7858262217
     C    14.2941179351  -11.1069308522   -2.8255443683
     C    13.8004861851   -9.8988858611   -2.1991935830
     N    14.6731393168   -9.3715808025   -1.3364727331
     S    15.9872307634  -10.3319384570   -1.3352753474
     N    15.5160840910  -11.4521675302   -2.4154099898
     C    14.0725290795  -13.0413063008   -4.3810317025
     C    13.3767569976  -13.9689590437   -5.0753581312
     C    13.9220288406  -15.1611299533   -5.7083231036
     C    15.3010771773  -15.4005506779   -5.8581161827
     C    15.7696969736  -16.5534542134   -6.4632110886
     C    14.8755716557  -17.5174800490   -6.9564027815
     C    13.4996367252  -17.2890649363   -6.8231549938
     C    13.0394652729  -16.1334643782   -6.2106257179
     N    15.3576317173  -18.6877122953   -7.5766725269
     C    14.7458911743  -19.9305256012   -7.3120703701
     C    14.5735127239  -20.8773887128   -8.3340003558
     C    13.9859361959  -22.1036635932   -8.0700590655
     C    13.5321858314  -22.4381351155   -6.7805499537
     C    13.6996410865  -21.4732103548   -5.7725168379
     C    14.2999798535  -20.2483828549   -6.0229654283
     C    12.9097386463  -23.7119178784   -6.4388779472
     C    12.7226458789  -24.7678974608   -7.2579852963
     C    12.1017946582  -26.0407839696   -6.9100859797
     C    11.5762832752  -26.3367737993   -5.6385955725
     C    10.9941000141  -27.5621016053   -5.3629927938
     C    10.9198748142  -28.5624944206   -6.3472779792
     C    11.4429539832  -28.2832908228   -7.6174572299
     C    12.0114157983  -27.0469235692   -7.8868581300
     N    10.3328499955  -29.8081758069   -6.0621191309
     C     9.5891994937  -30.4946940265   -7.0508882922
     C     9.7340146687  -31.8788410068   -7.2090683808
     C     8.9873084977  -32.5564027575   -8.1678428392
     C     8.1009137527  -31.8661776255   -8.9934763310
     C     7.9630855116  -30.4866744400   -8.8437093760
     C     8.6925012235  -29.8035452090   -7.8759467576
     C    10.4767707007  -30.3864726754   -4.7780273181
     C     9.3802085026  -30.9867441593   -4.1464646399
     C     9.5260470526  -31.5629236370   -2.8884469103
     C    10.7574685066  -31.5349751226   -2.2350511365
     C    11.8480243344  -30.9311473314   -2.8596380958
     C    11.7156833785  -30.3683016655   -4.1251566782
     C    16.4515159093  -18.6081020831   -8.4648727794
     C    17.4555973781  -19.5890941083   -8.4591549832
     C    18.5291546721  -19.5054084440   -9.3302264900
     C    18.6572266140  -18.4360315549  -10.2365960319
     C    17.6456475840  -17.4604181373  -10.2256101257
     C    16.5598202714  -17.5424619523   -9.3669109784
     C    19.7689697006  -18.2846692278  -11.1684379992
     C    20.8162084375  -19.1208985395  -11.3241557999
     C    21.9326291050  -18.9573444437  -12.2481788606
     C    22.0724833021  -17.8658060025  -13.1254470170
     C    23.1611681760  -17.7537404822  -13.9731901169
     C    24.1621433532  -18.7400392990  -13.9931175574
     C    24.0315110010  -19.8376476587  -13.1312015593
     C    22.9432364205  -19.9333044092  -12.2765852492
     N    25.2698836357  -18.6235411730  -14.8525345411
     C    26.5501802675  -19.0504268949  -14.4262947970
     C    27.3858635439  -19.7603717458  -15.2976017956
     C    28.6503576835  -20.1646296349  -14.8804969344
     C    29.0937122243  -19.8844508027  -13.5887345197
     C    28.2591931946  -19.1850650352  -12.7176185057
     C    27.0003853902  -18.7619498985  -13.1317069602
     C    25.1199563333  -18.0525548390  -16.1381709103
     C    26.0691274202  -17.1433575293  -16.6228139598
     C    25.9250062564  -16.5894294387  -17.8907180687
     C    24.8280060929  -16.9175092179  -18.6864705761
     C    23.8785702411  -17.8167449937  -18.2023459315
     C    24.0239139697  -18.3894479349  -16.9427819518
     H     8.2980625026    7.8702385324   -5.4657830402
     H     6.5270913384    7.8664897755   -5.6620786018
     H     7.5778393657    8.5028661019   -6.9517936491
     H     7.4742842646    6.3092058834   -4.1082977458
     H     8.1249617639    4.4309470828   -2.7100997806
     H     9.0519477522    2.1247200237   -6.2196851310
     H     5.6281517754    7.9052563660   -7.8571935247
     H     4.4989653009    7.4957250775   -9.9976470000
     H     5.0933893901    5.5065219906  -11.3779023205
     H     6.8565757762    3.9467944145  -10.5721440838
     H     9.5829740001    1.1916302392   -4.0823914949
     H     8.0668274643    2.4822707498   -1.7479883885
     H    10.7124358725   -0.0937868664   -2.6912578374
     H    11.3604980598   -1.9352635893   -1.2220386303
     H     8.2889776362   -0.8060269412    1.5681181235
     H     7.6578986387    1.0624733135    0.1041631627
     H     9.4617931211   -4.3755722011    2.9091792994
     H     9.4083673334   -4.1267088172    5.3390307989
     H    10.9028397867   -0.1101528856    4.9551173142
     H    10.9738863572   -0.3735977082    2.5100305332
     H    10.4449972282   -0.8752512919    7.1015857561
     H     9.5173162331   -3.7830316935    7.4309974536
     H    10.4488534552   -0.5055054331    9.2136486651
     H    10.3308818935   -0.2521661633   11.6222449071
     H     9.1052222887   -4.5773257561    9.5671914337
     H    10.4530007947   -1.2207053620   15.0822878051
     H     9.6988448143   -0.0936108114   13.9268725710
     H    11.2638445192   -0.8594990193   13.5531232793
     H     8.2763768388   -1.1773308839   15.5125859508
     H     6.4814416580   -2.3187413713   16.7334519069
     H     5.6945135395   -4.5714846489   16.0098742064
     H     6.7634404696   -5.6608039620   14.0442835916
     H    12.4071018929   -3.8883780594    1.9989562711
     H    13.3183191881   -5.9695267773    1.0476607654
     H    10.1810532744   -5.9914307266   -1.8964105548
     H     9.2714148184   -3.9296252074   -0.9386168725
     H    13.3788929874   -7.6487622376   -0.5700742052
     H    10.9470458171   -7.9212024152   -2.4168108514
     H    10.8133185632   -9.7614135100   -3.7666907195
     H    11.6458632528  -11.7779509229   -4.8159913412
     H    15.1378637641  -13.1840991567   -4.2138204097
     H    12.2970059709  -13.8549493929   -5.1725153212
     H    16.0225020241  -14.6742233332   -5.4942953364
     H    16.8387701831  -16.7183525438   -6.5596057026
     H    12.7936415286  -18.0179258315   -7.2102097940
     H    11.9675160762  -15.9694559159   -6.1248310191
     H    14.9011744955  -20.6418951208   -9.3423630937
     H    13.8646507966  -22.8061541273   -8.8901793161
     H    13.3649147018  -21.7004048325   -4.7626400926
     H    14.4296654850  -19.5334141266   -5.2158491638
     H    12.5803471681  -23.7837418826   -5.4024530633
     H    13.0621670055  -24.7014602363   -8.2916945155
     H    11.6057400901  -25.5910198504   -4.8487492814
     H    10.5842660569  -27.7520528548   -4.3755666987
     H    11.4046952432  -29.0413046701   -8.3939945964
     H    12.4131128181  -26.8566205575   -8.8799360732
     H    10.4332062438  -32.4194931358   -6.5775770797
     H     9.1111992611  -33.6307698695   -8.2772109578
     H     7.5239416210  -32.3974341896   -9.7452588624
     H     7.2704479763  -29.9355240316   -9.4746024855
     H     8.5696317919  -28.7312568498   -7.7536118475
     H     8.4154163132  -30.9979149661   -4.6454914478
     H     8.6651462517  -32.0241537464   -2.4112661802
     H    10.8661648224  -31.9797383768   -1.2497994418
     H    12.8163138844  -30.9088103142   -2.3662625561
     H    12.5718535595  -29.9125795503   -4.6143494320
     H    17.3900655661  -20.4162984702   -7.7584668660
     H    19.2906891509  -20.2792930419   -9.2903187086
     H    17.7101487464  -16.6253225436  -10.9196705492
     H    15.7867665077  -16.7800669835   -9.3921320458
     H    19.7150931820  -17.3875546657  -11.7851035328
     H    20.8696334390  -20.0209563492  -10.7114334876
     H    21.3258169378  -17.0765036080  -13.1361609255
     H    23.2482705199  -16.8906003069  -14.6263666093
     H    24.7875071726  -20.6171109304  -13.1349169377
     H    22.8629093788  -20.7953510129  -11.6177775800
     H    27.0396213553  -19.9929235777  -16.3006153667
     H    29.2871961962  -20.7144459712  -15.5687490072
     H    30.0790448034  -20.2072586046  -13.2642997037
     H    28.5937721936  -18.9520219333  -11.7100203937
     H    26.3598960606  -18.2043732877  -12.4544299480
     H    26.9170873310  -16.8741404454  -15.9996914660
     H    26.6700535086  -15.8850808255  -18.2518105899
     H    24.7148176354  -16.4778211234  -19.6734700461
     H    23.0225449649  -18.0882252441  -18.8148031666
     H    23.2901883794  -19.1017267139  -16.5762620455
