40
-1.7180310100397396e+03 frame 33   xyz file generated by TeraChem
     C     0.9694163152    0.6923843746    0.0579882190
     C     0.6402429793    0.7533586359    1.3829826889
     S     0.0380980523   -0.7541879560    1.9509969200
     C     0.2262900234   -1.5009227369    0.3894041759
     C     0.7339977457   -0.5903648290   -0.5077831410
     C    -0.0940965921   -2.9222453817    0.2034158599
     C     0.3791546849   -3.8485589389    1.1441663541
     C     0.1555986944   -5.2072572156    1.0030503026
     C    -0.5561046064   -5.7035395544   -0.0958898511
     C    -1.0775395870   -4.7895808078   -1.0536146663
     C    -0.8554134353   -3.3861994073   -0.8997637683
     C    -1.4421753409   -2.4995605221   -1.8616156970
     C    -2.1456446085   -2.9714821022   -2.9242821326
     C    -2.3449435012   -4.3728577772   -3.1236931775
     C    -1.8235496680   -5.2868183347   -2.1659457463
     C    -2.0457101349   -6.6901957523   -2.3197944595
     C    -1.4588714877   -7.5768346729   -1.3579891356
     C    -0.7553666195   -7.1049148000   -0.2953439070
     C    -2.8070581365   -7.1541440907   -3.4229646839
     C    -3.2802504653   -6.2278154564   -4.3637347728
     C    -3.0566377719   -4.8691271698   -4.2226442923
     C    -3.1275562931   -8.5754343836   -3.6089375752
     C    -3.6350169964   -9.4860380287   -2.7116497058
     C    -3.8706459132  -10.7687445531   -3.2774267332
     C    -3.5418721871  -10.8296464828   -4.6025219245
     S    -2.9398797331   -9.3220825954   -5.1706487083
     H     1.3746929018    1.5323484453   -0.4963519100
     H     0.7122365265    1.5972642131    2.0573583659
     H     0.9628835699   -0.8459626980   -1.5371704980
     H     0.9650363584   -3.4883986032    1.9856139910
     H     0.5517172891   -5.9039033114    1.7376452220
     H    -1.3275868515   -1.4302977720   -1.7228640167
     H    -2.5839797951   -2.2814901975   -3.6413995841
     H    -1.5733948183   -8.6460986980   -1.4967722774
     H    -0.3169511034   -7.7949170116    0.4217141189
     H    -3.8661535051   -6.5879490085   -5.2051791539
     H    -3.4527042761   -4.1724809290   -4.9572676241
     H    -3.8636227839   -9.2304980340   -1.6821864030
     H    -4.2757787251  -11.6087278087   -2.7230110702
     H    -3.6141064940  -11.6735075028   -5.2769274289
