65
-1.9681878495478832e+03 frame 119   xyz file generated by TeraChem
     N     7.1456550307   -2.0880689829   -3.0115650141
     C     6.4121883705   -1.4625443730   -2.3598618876
     C     5.5683555704   -0.6738369786   -1.5160649581
     C     4.3263150572   -0.2838632428   -1.9120203643
     C     3.5678471718   -0.5971385964   -3.1125098136
     C     2.4654673454    0.2245327433   -3.4145684189
     C     1.6935235952    0.0091658814   -4.5443431782
     C     1.9831636971   -1.0479612299   -5.4196303797
     C     3.0639607722   -1.8872589834   -5.1066055165
     C     3.8393220623   -1.6710789470   -3.9791094724
     C     1.1831004074   -1.2764221086   -6.6322027983
     C     0.4839545960   -0.2899012153   -7.2991362693
     S    -0.3243655728   -0.8815447477   -8.6793724605
     C     0.2644968242   -2.5006111434   -8.4120494849
     C     1.0473616433   -2.5365708414   -7.2781759416
     C    -0.1701900172   -3.5389147933   -9.3143535431
     C     0.2832959322   -4.8160308210   -9.4298005471
     C     1.4353278122   -5.4452257763   -8.7320784394
     C     1.2630824672   -6.6428752471   -8.0285689034
     C     2.3452785853   -7.2490309965   -7.3962299372
     C     3.6113136017   -6.6723337259   -7.4705703899
     C     3.7931008347   -5.4883114566   -8.1855061134
     C     2.7133286481   -4.8793433844   -8.8169090607
     C    -0.4175793196   -5.6643746411  -10.3425846041
     N    -0.9723447211   -6.3784581754  -11.0759960635
     C     6.1634276751   -0.2853476090   -0.2173214257
     C     5.3594843538    0.0180031338    0.8914024701
     C     5.9274999830    0.3880348269    2.1028358361
     C     7.3198029823    0.4555609767    2.2609851399
     C     8.1191848625    0.1393735817    1.1549028482
     C     7.5547236814   -0.2254419436   -0.0595817491
     C     7.9510034000    0.7576705808    3.5678400216
     C     8.9028819401   -0.1209714730    4.0530061869
     C     9.5256081164    0.0744157363    5.3024311720
     C     9.1914343069    1.1586036134    6.0748170221
     C     8.2379267352    2.1013232366    5.6153417871
     C     7.6101280417    1.9150527041    4.3425931154
     C     6.7062938163    2.9125546815    3.8907340410
     C     6.4115570327    4.0095101717    4.6661583726
     C     7.0087817001    4.1728915338    5.9355524082
     C     7.9067480738    3.2402648660    6.3935207279
     H     3.8198316098    0.4039968784   -1.2373655636
     H     2.2177551701    1.0452325041   -2.7456508273
     H     0.8416684151    0.6546405415   -4.7392686635
     H     3.3119595811   -2.7160985291   -5.7635877995
     H     4.6546262404   -2.3539977724   -3.7710183128
     H     0.4359935348    0.7653981718   -7.0611618530
     H     1.4836101613   -3.4521751700   -6.8989329098
     H    -0.9880409169   -3.2596426694   -9.9761128387
     H     0.2765640580   -7.0963669948   -7.9730448286
     H     2.1978587271   -8.1748618360   -6.8468387072
     H     4.4565161307   -7.1472422431   -6.9798050134
     H     4.7814796276   -5.0430861618   -8.2614364604
     H     2.8578921165   -3.9630729221   -9.3829195819
     H     4.2790246973   -0.0723368122    0.8229335413
     H     5.2802179588    0.5874539559    2.9524769380
     H     9.2008087764    0.1902320809    1.2469566738
     H     8.2062812309   -0.4577420320   -0.8978932128
     H     9.1539758080   -1.0010349676    3.4665992828
     H    10.2594082207   -0.6464375410    5.6525315523
     H     9.6553501077    1.3145222017    7.0459782113
     H     6.2520783980    2.8116120363    2.9101543317
     H     5.7191579163    4.7610118308    4.2961084420
     H     6.7652253488    5.0421709733    6.5404895030
     H     8.3874838260    3.3620726476    7.3615847555
