65
-1.9681915050570597e+03 frame 82   xyz file generated by TeraChem
     N     1.6202531154   -1.4874002678    1.6845619126
     C     2.5458133520   -1.1475417060    1.0666869189
     C     3.7169736503   -0.7073649483    0.3726603876
     C     4.0158238085   -1.1592968107   -0.8751040017
     C     3.2646270097   -2.0295904508   -1.7658313198
     C     1.8774059032   -2.2458198754   -1.6913308986
     C     1.2447703289   -3.1052381838   -2.5750217052
     C     1.9632030954   -3.7884605594   -3.5686826914
     C     3.3444356940   -3.5601642875   -3.6574812971
     C     3.9762366341   -2.6891764210   -2.7852274393
     C     1.2791240262   -4.7054521529   -4.4930657086
     C     1.7329446020   -5.0196877251   -5.7588524037
     S     0.6982477149   -6.1032620083   -6.5730577188
     C    -0.3917590230   -6.1886477163   -5.2149407152
     C     0.0621528699   -5.3795901685   -4.1950092200
     C    -1.5765899640   -7.0001985800   -5.3524313270
     C    -2.4978272112   -7.3392114520   -4.4114753439
     C    -2.4550005818   -7.0589740709   -2.9519236904
     C    -3.5038036042   -6.3678647186   -2.3348523787
     C    -3.4728673450   -6.1227776958   -0.9646361787
     C    -2.4022501272   -6.5764622350   -0.1969841006
     C    -1.3630282174   -7.2816352573   -0.8033991404
     C    -1.3893704244   -7.5256372875   -2.1729783515
     C    -3.6437250419   -8.0632413052   -4.8650576313
     N    -4.5895761966   -8.6492464753   -5.2081660623
     C     4.5920662139    0.2160896857    1.1283946013
     C     5.4403200609    1.1171467477    0.4681146921
     C     6.2687195947    1.9690531297    1.1842738775
     C     6.2797033025    1.9649160445    2.5874056833
     C     5.4207501633    1.0715106875    3.2426219037
     C     4.5911290984    0.2177633711    2.5299159862
     C     7.1531371900    2.8781087945    3.3543100455
     C     6.7172623715    3.3997786802    4.6053528173
     C     7.5137811428    4.2397687072    5.3398996323
     C     8.8000450337    4.6162826365    4.8771003713
     C     9.2490835507    4.1047962508    3.6216559122
     C     8.4031765997    3.2393744730    2.8868156087
     C    10.5365529264    4.4743028743    3.1527172482
     C    11.3375819703    5.3126557932    3.8905196999
     C    10.8899261827    5.8204167254    5.1328749216
     C     9.6482985719    5.4792199158    5.6143844945
     H     4.9881443471   -0.8572399713   -1.2598053434
     H     1.2771607876   -1.7190773580   -0.9579935744
     H     0.1678333930   -3.2284792069   -2.5057995061
     H     3.9329477773   -4.0822521151   -4.4067258632
     H     5.0480803420   -2.5281695716   -2.8729190188
     H     2.6161206778   -4.6426452189   -6.2590556611
     H    -0.4566472493   -5.2811208386   -3.2498651128
     H    -1.7667947021   -7.3633800962   -6.3608058739
     H    -4.3416357504   -6.0167140520   -2.9320482871
     H    -4.2881658104   -5.5773965400   -0.4971442511
     H    -2.3800520017   -6.3872221824    0.8728168739
     H    -0.5321590164   -7.6490209760   -0.2072157713
     H    -0.5828050263   -8.0798238101   -2.6454447406
     H     5.4271867888    1.1815385028   -0.6163477527
     H     6.8883781674    2.6793488635    0.6438747262
     H     5.4150911665    1.0247491754    4.3279824304
     H     3.9453346875   -0.4676514381    3.0723944435
     H     5.7256096235    3.1460097712    4.9691667072
     H     7.1613599654    4.6371924973    6.2890080698
     H     8.7711073388    2.8359660797    1.9460058695
     H    10.8776786257    4.0818617356    2.1973602476
     H    12.3213967639    5.5898939333    3.5213427948
     H    11.5339458689    6.4822171685    5.7057938687
     H     9.2984160051    5.8660883269    6.5689142834
