84
-2.2952475690251949e+03 frame 200   xyz file generated by TeraChem
     N     2.1584608912   -0.0996989422   -0.5095807130
     C     2.5193988991   -0.7146402531    0.4115012029
     C     2.9809740257   -1.5487437045    1.4652866002
     C     3.0474638997   -1.1912576238    2.7770229226
     C     2.7052644989    0.0299442835    3.4657989976
     C     2.1429452578    1.1731687689    2.8646948018
     C     1.8563862277    2.2959310961    3.6203146220
     C     2.1188274884    2.3335807498    5.0013765240
     C     2.6765712628    1.1944880834    5.6020824480
     C     2.9602612406    0.0676321609    4.8505152480
     C     1.8152340866    3.5361148299    5.7995989454
     C     0.7116944145    4.3457189024    5.4942963904
     C     0.4185437620    5.4685831019    6.2544017046
     C     1.2281528168    5.8245860934    7.3411907110
     C     2.3351109896    5.0211990307    7.6487474162
     C     2.6201723630    3.8964114091    6.8923410616
     C     0.9436051117    6.9970978383    8.1656673796
     N     0.0032103861    7.9394741552    7.8102507796
     C    -0.0067766269    8.8904874981    8.8044051099
     C     0.9632496704    8.4360563153    9.7451774778
     N     1.5312203592    7.2548624141    9.3167213687
     C     1.1186151691    9.2793779387   10.8360947015
     S     0.0246392652   10.6220086508   10.6387796227
     C    -0.6311647937   10.0779561390    9.1118249055
     C    -1.6615916682   10.8261689853    8.4063987809
     C    -1.8654606432   12.1958162127    8.6231193371
     C    -2.8582136084   12.8930671944    7.9419631571
     C    -3.6849293116   12.2671424910    7.0032993677
     C    -3.4746400755   10.8967127895    6.7887029871
     C    -2.4989821072   10.1883995186    7.4746121938
     C    -4.7676981920   13.0100387782    6.2198785602
     C    -4.9030929278   14.4705376204    6.6597202470
     C    -4.4093813668   12.9855089703    4.7245546059
     C    -6.1247720400   12.3179497599    6.4255243950
     C     1.9972462334    9.1646581215   11.9889973336
     C     2.0844394472   10.1665296606   12.9662283086
     C     2.9296996235   10.0327652860   14.0623168563
     C     3.7305170729    8.8993110046   14.2373703330
     C     3.6402905928    7.9009240092   13.2550346270
     C     2.8001440401    8.0210972405   12.1587255627
     C     4.6679584391    8.7154366172   15.4304523541
     C     4.6383932176    9.9121725370   16.3844913813
     C     4.2494146610    7.4612103183   16.2157279159
     C     6.1099037612    8.5382514153   14.9262939257
     C     3.4361245242   -2.9293759620    1.1034691732
     O     3.8241175325   -3.7253600242    1.9290470956
     O     3.4031256258   -3.2705193325   -0.1886914995
     H     3.4391223172   -1.9853530325    3.4114230622
     H     1.9319763912    1.1931396444    1.8013506072
     H     1.4447847561    3.1720077013    3.1276749908
     H     2.8641863344    1.1825755773    6.6716494899
     H     3.3824080974   -0.8091322424    5.3351163949
     H     0.0531976410    4.0758410366    4.6738723341
     H    -0.4650549558    6.0496052493    6.0064889425
     H     2.9713475466    5.2970021904    8.4833064867
     H     3.4969021380    3.3029162595    7.1349290742
     H    -0.4582923232    8.0023642904    6.9154077574
     H    -1.2306086194   12.7335322811    9.3237248369
     H    -2.9732162980   13.9519609842    8.1498237670
     H    -4.0946999202   10.3590172270    6.0757158517
     H    -2.4092462322    9.1189086019    7.3053992197
     H    -3.9817546364   15.0369793271    6.4825524305
     H    -5.1589520251   14.5514226256    7.7225000756
     H    -5.7029809917   14.9503084538    6.0847561029
     H    -3.4492010070   13.4827183769    4.5453775051
     H    -5.1788775249   13.5082796754    4.1433661005
     H    -4.3378830339   11.9604881643    4.3440032396
     H    -6.4095761217   12.3183432812    7.4839719176
     H    -6.1086795886   11.2794823173    6.0786069180
     H    -6.9031511081   12.8459554516    5.8616941323
     H     1.4885401794   11.0720513887   12.8736844275
     H     2.9586848988   10.8383968137   14.7890087275
     H     4.2411845847    6.9996586071   13.3483473037
     H     2.7567723675    7.2273582365   11.4193102384
     H     3.6398988649   10.0709357701   16.8079276697
     H     4.9531155689   10.8370915750   15.8873144310
     H     5.3275954503    9.7301068095   17.2166941904
     H     3.2303807188    7.5667478977   16.6054256492
     H     4.9264052855    7.3058924470   17.0644521582
     H     4.2822480894    6.5632982230   15.5896022524
     H     6.4375919312    9.4183337865   14.3610107593
     H     6.2087799284    7.6615545253   14.2772526621
     H     6.7897772676    8.4053864526   15.7764309579
     H     3.0813318301   -2.5466855794   -0.7538406786
