51
-1.7551672951630326e+03 frame 32   xyz file generated by TeraChem
     N     2.3030023410    0.4612715907   -1.4747901908
     C     3.0201667493    0.6650053687   -0.5793968069
     C     3.9261115130    1.0079299499    0.4591565670
     C     4.1101066263    0.2942841694    1.6060909932
     C     3.5180572944   -0.9287169142    2.0837529183
     C     2.5814943601   -1.7090032402    1.3741799898
     C     2.0776921599   -2.8745194281    1.9157174839
     C     2.4847271435   -3.3247208507    3.1883405013
     C     3.4134424857   -2.5457767306    3.9002456683
     C     3.9168959582   -1.3775543074    3.3588488890
     C     1.9497428574   -4.5655582235    3.7294276957
     C     1.3789053990   -5.6180270540    3.0455805094
     C     0.9861359229   -6.6846969598    3.8818558837
     C     1.2538242451   -6.4715591614    5.2174959051
     S     1.9865851285   -4.9102427375    5.4333777775
     C     0.8579848946   -7.3417892381    6.3313336523
     C    -0.4393070814   -7.8762051912    6.2832709004
     C    -0.9297453982   -8.6953734065    7.2854458616
     C    -0.1419558484   -9.0102852561    8.3994138347
     C     1.1849817659   -8.4977452642    8.4695448178
     C     1.6992968722   -7.6696312787    7.4251337034
     C     3.0664328484   -7.2426788355    7.5211332518
     C     3.8422120406   -7.5602163899    8.5917721722
     C     3.3363995421   -8.3473130197    9.6741166945
     C     1.9991275043   -8.8259452138    9.5934327745
     C     1.4808078915   -9.6396392340   10.6423666409
     C     0.1372613858  -10.1288150247   10.5412036997
     C    -0.6370124862   -9.8297923030    9.4652628124
     C     2.2974209186   -9.9417781789   11.7404943864
     C     3.6017653640   -9.4623242843   11.8121015914
     C     4.1197976137   -8.6751506090   10.7892379929
     C     4.7358937423    2.2535168737    0.2815959269
     O     5.5373503753    2.6353574888    1.1053144659
     O     4.5487645367    2.9564036673   -0.8412915941
     H     4.8449500583    0.7463611415    2.2713351396
     H     2.2374721427   -1.4031141113    0.3927617883
     H     1.3419933107   -3.4420516633    1.3546110610
     H     3.7613058952   -2.8715103579    4.8767473422
     H     4.6418577442   -0.7953509672    3.9218787670
     H     1.2774108059   -5.6382148294    1.9657101164
     H     0.5362449791   -7.6023495192    3.5174940300
     H    -1.0802607766   -7.6108269504    5.4475101735
     H    -1.9434633031   -9.0832497518    7.2235640008
     H     3.4978356044   -6.6681980291    6.7089650350
     H     4.8762087403   -7.2262045378    8.6340650108
     H    -0.2486922672  -10.7500763012   11.3458701121
     H    -1.6538588374  -10.2078871890    9.3921104685
     H     1.8968929954  -10.5602888647   12.5400836213
     H     4.2204457609   -9.7074557011   12.6711075403
     H     5.1414986141   -8.3069041801   10.8430389136
     H     3.8886312829    2.5483653230   -1.4284065578
