46
-1.1845704169845012e+03 frame 54   xyz file generated by TeraChem
     C    -1.1750550119    0.5368722225   -0.7834899247
     C    -0.4681905684    1.7393682716   -0.7825205712
     C     0.9209134528    1.7338317964   -0.7792525190
     C     1.6184925225    0.5134641569   -0.7769144541
     C     0.9001853163   -0.6948078506   -0.7778894960
     C    -0.4887421841   -0.6774530819   -0.7811911244
     C     3.0405315667    0.5005245855   -0.7736303916
     C     4.2558306856    0.4951609213   -0.7711553298
     C     5.6795550078    0.4545579718   -0.7682201438
     C     6.3505280615   -0.7719395039   -0.7642488247
     C     7.7478149547   -0.7280253170   -0.7614302918
     C     8.5053901772   -1.9341031517   -0.7570786049
     C     9.1269616088   -2.9784289834   -0.7530674565
     C     9.8582571641   -4.1980702775   -0.7484534348
     C    11.2637858496   -4.1822882675   -0.7427797430
     C    11.9713086859   -5.3777696313   -0.7384163395
     C    11.2917114526   -6.5959289269   -0.7396277922
     C     9.8970938312   -6.6182815818   -0.7452191359
     C     9.1794373009   -5.4290115882   -0.7495751659
     N     8.4226771157    0.4343643335   -0.7626595309
     C     7.6762199668    1.5466524030   -0.7666891411
     N     6.3389871986    1.6259427100   -0.7694705928
     C     8.3875369993    2.7883466955   -0.7682618797
     C     8.9935952400    3.8408152771   -0.7695014652
     C     9.7046490858    5.0732076643   -0.7710759586
     C     9.0077059707    6.2937258435   -0.7728224160
     C     9.7075231100    7.4938769366   -0.7742890533
     C    11.1023040991    7.4930913656   -0.7740790919
     C    11.7999670555    6.2852907691   -0.7723970310
     C    11.1101190736    5.0793856412   -0.7708838460
     H    -2.2615742735    0.5460797724   -0.7860642226
     H    -1.0019536082    2.6855771606   -0.7842993525
     H     1.4777279449    2.6660302252   -0.7784937527
     H     1.4409658435   -1.6364565616   -0.7760803865
     H    -1.0383138718   -1.6145722959   -0.7819403290
     H     5.8131816172   -1.7126664994   -0.7633259305
     H    11.7856914480   -3.2301029521   -0.7419290787
     H    13.0575336684   -5.3596879587   -0.7340338551
     H    11.8492504764   -7.5285151397   -0.7362514864
     H     9.3670522785   -7.5665965217   -0.7461490854
     H     8.0935720732   -5.4386380787   -0.7539520337
     H     7.9218179345    6.2866673635   -0.7729775227
     H     9.1630396961    8.4340231396   -0.7756075322
     H    11.6456322120    8.4340808161   -0.7752383524
     H    12.8864066031    6.2832940616   -0.7722500292
     H    11.6464102793    4.1351808474   -0.7695517020
