91
-2.4326506250223074e+03 frame 64   xyz file generated by TeraChem
     N     0.5448556277   -0.7419195806    0.6280308401
     C     1.6450903220   -0.4208614207    0.4183621472
     C     3.0093013761   -0.0998880972    0.1996804279
     C     3.4352394568    1.0375741229   -0.4250310878
     C     2.6801280986    2.1079184010   -0.9835228411
     C     1.3110839770    2.3257663274   -1.0668895368
     C     0.9828717167    3.5269309967   -1.7186283013
     C     2.0858130148    4.2429987792   -2.1432111802
     S     3.5432917555    3.4261826431   -1.7303230168
     C     2.1058304373    5.5330122044   -2.8628284758
     C     2.1336426194    6.7430632847   -2.1368769545
     C     2.1427960405    6.7623717643   -0.7136299153
     C     2.1310379979    7.9278356796    0.0166962753
     C     2.0943190557    9.1550186100   -0.7049849541
     C     2.0915037140    9.1850596293   -2.0739305724
     C     2.1290559516    7.9904500760   -2.8455822855
     C     2.1294606608    8.0053810018   -4.2608041594
     C     2.1399946191    6.7954218091   -4.9841910909
     C     2.0998378325    5.5472144707   -4.2677745996
     C     2.0865786174    4.3414059170   -5.0327167848
     C     2.1458857997    4.3617324206   -6.3946476914
     C     2.2339897390    5.5885116733   -7.1241880079
     C     2.2297204405    6.7593707180   -6.4104895088
     C     2.3292162256    5.5393115659   -8.6473636487
     C     1.0855469117    4.8282876373   -9.2080339595
     C     2.4042421451    6.9332889499   -9.2732979577
     C     3.5888400165    4.7548981927   -9.0505899442
     N     2.1583007733    9.2661806569   -4.9232051952
     C     1.1930401902    9.6248672201   -5.9018585566
     C     1.6202928738   10.1275582551   -7.1191451902
     C     0.7102792025   10.4839095201   -8.1311246661
     C    -0.6390877734   10.3126947743   -7.9434564799
     C    -1.1254918514    9.8178437311   -6.7092577534
     C    -0.2129402808    9.4918265372   -5.6528749447
     C    -0.7554024334    9.0885547822   -4.4049116602
     C    -2.1129293622    8.9716291756   -4.2219492814
     C    -3.0079456951    9.2508828473   -5.2777226774
     C    -2.5197700500    9.6709947843   -6.4897967031
     C     3.3252284137   10.0596175001   -4.7818095066
     C     4.5749808070    9.4634515176   -4.5791945821
     C     5.7092093247   10.2527781071   -4.4056532927
     C     5.6217286523   11.6417478914   -4.4464165411
     C     4.3768805642   12.2373093439   -4.6535722173
     C     3.2364865658   11.4591559770   -4.8108907201
     C     2.1423271723    7.8770997583    1.5478051875
     C     3.4048472080    7.1383090467    2.0211471707
     C     2.1380744218    9.2724179975    2.1785548975
     C     0.8966750139    7.1216617217    2.0392417803
     C     4.0465117456   -1.0618766854    0.6736113438
     O     5.2336201573   -0.8585594327    0.5461738659
     O     3.6204287719   -2.1892038249    1.2548882833
     H     4.5195774501    1.1109261018   -0.4979634326
     H     0.5706524419    1.6403227038   -0.6716609778
     H    -0.0320467972    3.8721379317   -1.8829992437
     H     2.1499333279    5.8051421022   -0.2006920638
     H     2.0627919770   10.0961650662   -0.1665971508
     H     2.0537690911   10.1391101786   -2.5880789600
     H     2.0286484223    3.3913766110   -4.5099192970
     H     2.1343779070    3.4178918783   -6.9327211945
     H     2.2980186087    7.7044592283   -6.9306183711
     H     0.1728453483    5.3773955916   -8.9494344973
     H     0.9885037287    3.8066491972   -8.8256215242
     H     1.1508618478    4.7705604930  -10.3011882947
     H     1.5211697489    7.5347439422   -9.0300870518
     H     2.4566526683    6.8392138202  -10.3638179984
     H     3.2943000567    7.4822444273   -8.9439724662
     H     3.5741787005    3.7318939453   -8.6596007306
     H     4.4926056223    5.2491138173   -8.6760551656
     H     3.6588423448    4.6947346384  -10.1431709478
     H     2.6856626864   10.2314465792   -7.3025201923
     H     1.0916872384   10.8716470630   -9.0719084493
     H    -1.3498685532   10.5649683920   -8.7264314504
     H    -0.0909343109    8.8839416993   -3.5750974492
     H    -2.4999349194    8.6684339085   -3.2527328219
     H    -4.0785538702    9.1464339213   -5.1234769145
     H    -3.1970387188    9.9105012533   -7.3065252016
     H     4.6589660267    8.3808067184   -4.5600567718
     H     6.6710480685    9.7707591196   -4.2500695069
     H     6.5097535121   12.2539452393   -4.3171097781
     H     4.2878942365   13.3204305017   -4.6786950336
     H     2.2687718090   11.9307003085   -4.9554376937
     H     4.3103344722    7.6620603654    1.6937794665
     H     3.4439077101    6.1157536454    1.6316493933
     H     3.4187923341    7.0827665373    3.1162451933
     H     3.0175481562    9.8564775461    1.8837121410
     H     2.1541375185    9.1755245358    3.2698631002
     H     1.2398849372    9.8400944564    1.9094076930
     H     0.8657242174    6.0986545705    1.6500093720
     H    -0.0202181232    7.6335537474    1.7249837112
     H     0.8988326841    7.0660605906    3.1344643079
     H     2.6495415236   -2.2394625351    1.2949465511
