46
-1.5779720404954078e+03 frame 38   xyz file generated by TeraChem
     N     1.0078016818    1.3513065569   -0.6336420596
     C     2.0231681101    0.8834104130   -0.3101836831
     C     3.2682241783    0.3117835934    0.0778449376
     C     3.7551922013   -0.8220361257   -0.5070769477
     C     3.1964129337   -1.6145118398   -1.5567277928
     C     2.0967391238   -1.3774802160   -2.3796791232
     N     2.0490353316   -2.3819247826   -3.2713348864
     N     3.0346952229   -3.2888122990   -3.0879354443
     C     3.7385285801   -2.8469982504   -2.0574227332
     C     4.9077483458   -3.6041443260   -1.5900369824
     C     5.1690016863   -3.7709707859   -0.2239227494
     C     6.2757101463   -4.5026174330    0.1971933195
     C     7.1289048551   -5.0826108985   -0.7382237553
     C     6.8676067455   -4.9331542291   -2.0998093026
     C     5.7658862295   -4.1998606956   -2.5242587238
     C     1.0977799691   -2.5774502528   -4.3043083501
     C     0.3906572627   -1.4912428981   -4.8200896687
     C    -0.5527463351   -1.7064783503   -5.8192857111
     C    -0.7798051051   -2.9892850218   -6.3125416284
     C    -0.0557560275   -4.0634259172   -5.7989084806
     C     0.8825016787   -3.8660836971   -4.7922493516
     C     4.0188649846    0.9802611238    1.1402860474
     N     5.1633747935    0.5616342456    1.5846961270
     C     5.6322758518    1.3783110978    2.5874281958
     C     4.7987892468    2.4718793207    2.9165607606
     S     3.3844333245    2.4365194205    1.9064958573
     C     5.1456598813    3.3805750438    3.9152911160
     C     6.3449476757    3.1819592974    4.5871380526
     C     7.1826321111    2.1007220674    4.2707433584
     C     6.8381265381    1.1981520391    3.2777473126
     H     4.7131040362   -1.1555279675   -0.1154461562
     H     1.3661100447   -0.5834538436   -2.3762660229
     H     4.4875505994   -3.3556543334    0.5134797994
     H     6.4638284102   -4.6273705079    1.2599888879
     H     7.9924885816   -5.6535382103   -0.4080719691
     H     7.5281993371   -5.3857920763   -2.8343933610
     H     5.5619586659   -4.0743705321   -3.5835420699
     H     0.5834918733   -0.4841742906   -4.4636252494
     H    -1.1030030861   -0.8603745595   -6.2207541005
     H    -1.5142508349   -3.1502349905   -7.0963559527
     H    -0.2249566672   -5.0673030286   -6.1779618844
     H     1.4480736542   -4.6933078709   -4.3786556292
     H     4.4994271861    4.2174485672    4.1617602239
     H     6.6371183368    3.8760138949    5.3700283927
     H     8.1147225195    1.9714871875    4.8134486773
     H     7.4771541141    0.3580257129    3.0234643051
