29
-8.0343155351952919e+02 frame 23   xyz file generated by TeraChem
     O     1.3275628308   -0.1934545719    0.3096426395
     C     2.6726186182   -0.3008417212    0.2707933869
     O     3.2481498070   -0.8002537767    1.2106572369
     C     3.3329618370    0.2480748796   -0.9493516488
     C     2.7981523426    1.4020854733   -1.5359339649
     C     3.3813868080    1.9838011690   -2.6490840819
     C     4.5206969578    1.4160992339   -3.2315892344
     C     5.0821624893    0.2407795848   -2.6542151653
     C     4.4964856735   -0.3470629503   -1.4928081275
     C     5.0969560464   -1.5352869966   -0.9550154185
     C     6.2000102260   -2.0873068275   -1.5262202118
     C     6.8140242816   -1.5149585368   -2.6847695553
     C     6.2402170806   -0.3416070096   -3.2453598566
     C     6.8297208678    0.2464136529   -4.4002613818
     C     6.2391588870    1.4297988617   -4.9519326283
     C     5.1353813048    1.9899002163   -4.3920324526
     C     7.9682794326   -0.3442327521   -4.9633059088
     C     8.5230192338   -1.4925344570   -4.4070369905
     C     7.9532832399   -2.0735469320   -3.2795320997
     H     0.9890279545    0.0831368953   -0.5561652483
     H     1.9316930388    1.8827739365   -1.0876750821
     H     2.9596344730    2.8899043177   -3.0757120831
     H     4.6595037498   -1.9803132355   -0.0702882667
     H     6.6390912667   -2.9871816527   -1.1022400188
     H     6.6971297021    1.8720311733   -5.8333372081
     H     4.6933566689    2.8881391464   -4.8156323816
     H     8.4156666916    0.1087765931   -5.8446208805
     H     9.4066135737   -1.9373561535   -4.8561745956
     H     8.3875352066   -2.9709487966   -2.8458286965
