30
-7.2945533713552618e+02 frame 27   xyz file generated by TeraChem
     O     3.6619252553    0.9486396376    0.4281970066
     C     2.5038905844    0.3925291368   -0.1775735933
     C     2.8771139071   -0.8342234392   -0.9639606913
     C     2.3731744271   -2.0759307064   -0.5793131053
     C     2.6524812073   -3.2330236063   -1.2961828715
     C     3.4573061607   -3.1837788811   -2.4385065680
     C     3.9901147868   -1.9284260137   -2.8505408158
     C     3.7043636040   -0.7482439361   -2.1045375423
     C     4.2654314423    0.4939537875   -2.5561461897
     C     5.0426085330    0.5575689224   -3.6695657745
     C     5.3409623257   -0.6117029724   -4.4412110996
     C     4.8065088838   -1.8599651953   -4.0161853832
     C     5.0891270288   -3.0394612609   -4.7633650408
     C     4.5389037610   -4.2874089486   -4.3188339723
     C     3.7598213903   -4.3556580409   -3.2084661914
     C     5.8926881725   -2.9466031874   -5.9066958566
     C     6.4120595321   -1.7215112280   -6.3139880174
     C     6.1410264167   -0.5651866645   -5.5909051552
     H     3.3894071990    1.7695892656    0.8619644311
     H     2.0280817581    1.1276395290   -0.8463023675
     H     1.7584756672    0.1141194004    0.5814869761
     H     1.7408629717   -2.1353723704    0.3036535670
     H     2.2446906208   -4.1877440994   -0.9729030466
     H     4.0842195983    1.3875429796   -1.9687295266
     H     5.4609367564    1.5083645096   -3.9920062953
     H     4.7599779262   -5.1830788888   -4.8946825863
     H     3.3467806561   -5.3068144483   -2.8807521560
     H     6.1068543400   -3.8481306285   -6.4758816983
     H     7.0342932449   -1.6684084647   -7.2032985214
     H     6.5491716784    0.3902141326   -5.9121267081
