12
-1.2322256641254812e+03 frame 25   xyz file generated by TeraChem
     N     2.0785524816   -0.8929853408    0.9105293124
     P     3.0008434578   -0.1213011059   -0.2706562100
     O     4.3229859002    0.6303037747    0.5196708121
     P     5.7600472007   -0.1955666816    0.5000051796
     O     5.9064311884   -0.7647526414    2.0685632516
     P     5.3722824532   -2.3399751084    2.3372182972
     H     2.3086222535   -1.8628259727    1.0906291391
     H     1.8013759280   -0.4025801998    1.7540891987
     H     2.2504768412    1.0796961428   -0.2723218613
     H     6.5611543766    0.9464860664    0.7648331886
     H     4.6718661713   -2.0961577274    3.5506267738
     H     6.5234413054   -2.8297210355    3.0136125660
