39
-1.3323876120008194e+03 frame 40   xyz file generated by TeraChem
     N     1.3348748441   -1.0387578800   -0.7764577737
     C     2.3987900111   -0.6110500218   -0.5717602303
     C     3.6937306727   -0.0888321661   -0.3079471318
     C     4.0864931309    0.2648631735    0.9582646379
     C     3.3842319931    0.2079169527    2.1911826735
     C     2.0935764791   -0.2459132716    2.4658237790
     N     1.8219675958   -0.1296652558    3.7838023036
     C     2.9205360387    0.4148202632    4.4332374501
     C     3.9245696524    0.6354088541    3.4663085474
     C     5.1517967818    1.1723671288    3.8705277553
     C     5.3397098352    1.4726958853    5.2120770201
     C     4.3254994340    1.2462339572    6.1582431886
     C     3.0994440178    0.7143590364    5.7839046297
     C     0.5486544514   -0.4523009004    4.4079468575
     C    -0.3400820815    0.7700008166    4.5918944443
     C     4.6064742567    0.0704001380   -1.4350133306
     N     5.8158894626    0.5302443646   -1.3274144985
     C     6.4393952208    0.5773343849   -2.5525433293
     C     5.6636988882    0.1297230163   -3.6463474980
     S     4.0974709137   -0.3622533652   -3.0707765075
     C     6.1664621883    0.1250803558   -4.9462499013
     C     7.4655816102    0.5764325424   -5.1441553515
     C     8.2478107755    1.0222914305   -4.0678985413
     C     7.7474015574    1.0266566448   -2.7754167593
     H     5.1020678751    0.6536632127    1.0094890507
     H     1.3482115183   -0.6527339120    1.7962700981
     H     5.9461306122    1.3524171455    3.1508602147
     H     6.2876387757    1.8908438050    5.5390750972
     H     4.5028847577    1.4926310882    7.2012795808
     H     2.3158237119    0.5419802190    6.5158660643
     H     0.7602476375   -0.9325914360    5.3687729570
     H     0.0584239507   -1.1970157978    3.7748413792
     H     0.1428358343    1.5211480379    5.2245025138
     H    -1.2814752690    0.4754540353    5.0666513671
     H    -0.5697894924    1.2297457226    3.6256002772
     H     5.5626705500   -0.2191895508   -5.7804593960
     H     7.8796387235    0.5829843137   -6.1484627525
     H     9.2606741918    1.3694000063   -4.2518548338
     H     8.3433210021    1.3696575771   -1.9350238455
