33
-1.2155217982053939e+03 frame 29   xyz file generated by TeraChem
     F     1.3859215444   -1.0187368922    0.0038261998
     C     2.6539886154   -0.6123722049    0.0025294251
     C     3.6745503154   -1.5926110263    0.0042049873
     F     3.3095932645   -2.8708851775    0.0065213658
     C     4.9942341621   -1.2332960022    0.0037149689
     F     5.9330410834   -2.1777378956    0.0068752106
     C     5.3804708472    0.1347943266    0.0014750355
     C     4.3399245027    1.1304346204   -0.0053830789
     C     2.9864135769    0.7113706943   -0.0012967444
     F     2.0215398635    1.6369333982   -0.0041537878
     C     4.6894826272    2.4929998161   -0.0150053159
     C     6.0333043004    2.8040412702   -0.0268782435
     C     6.9632576117    1.7184127745    0.0081744328
     N     6.6930846479    0.4287220258    0.0163329680
     N     8.1993281046    2.2804011634    0.0501038815
     N     8.1331794181    3.6282413599    0.0382880464
     C     6.8611821872    3.9803352050   -0.0096759804
     C     6.4687275737    5.3924487768   -0.0194217679
     C     5.2865952268    5.8091565296   -0.6444406543
     C     4.9272929477    7.1536449243   -0.6499536963
     C     5.7446426594    8.1001347848   -0.0367152742
     C     6.9279181905    7.6943967065    0.5799493642
     C     7.2874798086    6.3524134531    0.5914110196
     C     9.4710512873    1.6037824050    0.0748615058
     H     3.9113584761    3.2487623875   -0.0047575709
     H     4.6596889873    5.0846621901   -1.1562077469
     H     4.0095999939    7.4625249942   -1.1431506249
     H     5.4626916654    9.1495375416   -0.0405344578
     H     7.5704483289    8.4272368913    1.0607236346
     H     8.2028414187    6.0307220852    1.0792686286
     H     9.2744391070    0.5308637368    0.0893801708
     H    10.0314553603    1.8870631112    0.9699029738
     H    10.0532269764    1.8586996479   -0.8151090526
