65
-2.3073632919996689e+03 frame 68   xyz file generated by TeraChem
     C     0.2280027116   -2.8812210922   -0.4255743331
     N     0.1893261227   -1.4437179388   -0.3235221164
     C    -0.9440986902   -0.6902995476   -0.0980928789
     C    -2.2716795297   -1.1001833155    0.0398284815
     C    -3.2338345699   -0.1246904962    0.2447956476
     C    -2.9079234714    1.2485830341    0.3329307570
     C    -1.5712767820    1.6391349128    0.2008945575
     C    -0.5885539238    0.6779254487   -0.0174501952
     C     0.8438320332    0.7365819903   -0.1881971456
     C     1.2797693403   -0.5991668874   -0.3674251495
     C     2.6315363971   -0.8956303591   -0.5541942501
     C     3.5309140562    0.1581095175   -0.5722843367
     C     3.1213933380    1.5023508850   -0.4154854191
     C     1.7647037341    1.7799087920   -0.2199789765
     C     4.1190070636    2.5703233936   -0.4676047754
     C     5.3362981793    2.5789906645   -1.1124044478
     C     6.0485604005    3.7900985693   -0.9605450274
     C     5.3861422975    4.7228289889   -0.1982051585
     S     3.8659937317    4.0836424785    0.3495159632
     C     5.8417591293    6.0718312349    0.1348578857
     N     7.0429251636    6.4211820327   -0.3552780928
     C     7.4878881009    7.6455912349   -0.0745204645
     C     6.7975917507    8.5787676563    0.6870621238
     C     5.5437873371    8.2277782718    1.2058788089
     C     5.0735551320    6.9462653076    0.9142748587
     C     4.7179913753    9.1244887887    2.0238572446
     C     5.0079471069   10.3854456863    2.3574079612
     C    -3.9689292586    2.2275704852    0.5649486042
     C    -5.1936093317    2.0430928209    1.1682789347
     C    -5.9789429364    3.2161151708    1.2254782414
     C    -5.3660032559    4.3130757920    0.6677918393
     S    -3.7996585230    3.8801926622    0.0523574244
     C    -5.9077395917    5.6680939738    0.5752978404
     N    -7.1482247748    5.8338097342    1.0644618779
     C    -7.6772829186    7.0549620932    0.9991312633
     C    -7.0359587300    8.1622511963    0.4611675144
     C    -5.7417839987    8.0049197761   -0.0531268927
     C    -5.1824598216    6.7272272409    0.0145103845
     C    -4.9608608570    9.0971034356   -0.6470489462
     C    -5.3625517568   10.3610075000   -0.8106659297
     H    -0.6750014394   -3.2364280401   -0.9287057858
     H     0.2972170491   -3.3576543018    0.5597121407
     H     1.0889279251   -3.1808898131   -1.0268464293
     H    -2.5535377514   -2.1470985154   -0.0184170076
     H    -4.2749766893   -0.4226186099    0.3246359309
     H    -1.2968691604    2.6875143691    0.2906151376
     H     2.9830839358   -1.9166753900   -0.6675787288
     H     4.5889080977   -0.0577249477   -0.6888451712
     H     1.4248782601    2.8074200056   -0.1132675663
     H     5.6924258695    1.7438546971   -1.7063271518
     H     7.0166973107    3.9961184957   -1.4020817862
     H     8.4639688450    7.8990964022   -0.4858731397
     H     7.2357195092    9.5549248550    0.8684236781
     H     4.1042587651    6.6349147644    1.2965530982
     H     3.7825065252    8.6915010903    2.3767379007
     H     5.9197767590   10.8842679249    2.0390521577
     H     4.3265836329   10.9682962508    2.9699267601
     H    -5.5066325778    1.0919533162    1.5857522443
     H    -6.9650754775    3.2775096942    1.6704175686
     H    -8.6831010206    7.1568349920    1.4043467546
     H    -7.5394831092    9.1232653479    0.4471736802
     H    -4.1793717849    6.5633129490   -0.3721757366
     H    -3.9613033582    8.8177365034   -0.9789156334
     H    -6.3458778562   10.7097151432   -0.5060088114
     H    -4.7067733508   11.0979061038   -1.2645639935
