39
-1.3777495515643445e+03 frame 36   xyz file generated by TeraChem
    Cl    -2.0122103417    0.6338330223   -0.5338443123
     C    -0.2852555068    0.5019198249   -0.3325470569
     C     0.3052189301    0.9776461198    0.8347040195
     C     1.6813415932    0.8696537468    0.9891931528
     C     2.4779978039    0.2926126019   -0.0081214867
     C     1.8557421236   -0.1785072805   -1.1707876769
     C     0.4806761894   -0.0774053508   -1.3392994303
     C     3.9306699065    0.1734139764    0.1379882324
     C     4.7196083753    0.6488378506    1.1731489721
     N     6.0009830266    0.2936559246    0.8497072869
     C     5.9380780917   -0.3838567471   -0.3694351814
     N     4.6872427323   -0.4591576887   -0.8059102763
     C     7.1349119879   -0.8646890678   -0.9326387644
     C     8.3460431703   -0.6673633868   -0.2950366090
     C     8.3435239403    0.0381271747    0.9526001161
     C     7.1888075202    0.5009731532    1.4990687070
     C     9.5640418574   -1.1774116080   -0.9095010752
     C    10.8174068300   -1.0472197185   -0.4318183814
     C    12.0433185167   -1.5546080216   -1.0442611991
     C    12.0603167268   -2.3557563537   -2.1991729743
     C    13.2597814786   -2.8019118472   -2.7374751432
     C    14.4741872424   -2.4633004958   -2.1383075957
     C    14.4754639843   -1.6742885895   -0.9909109812
     C    13.2738259005   -1.2283464786   -0.4513506860
     H    -0.3053427366    1.4245711879    1.6126712412
     H     2.1338857547    1.2395958342    1.9051186916
     H     2.4678231023   -0.6273756132   -1.9464633726
     H     0.0060378651   -0.4440767555   -2.2438787628
     H     4.4960493199    1.1943312169    2.0775031567
     H     7.0743002567   -1.3908220363   -1.8801199726
     H     9.2669994600    0.2169440648    1.4907861330
     H     7.1367842626    1.0381593064    2.4388544291
     H     9.4052050737   -1.7045434060   -1.8490511362
     H    10.9747424521   -0.5053380440    0.4999562186
     H    11.1274603764   -2.6380707839   -2.6791139486
     H    13.2490618512   -3.4215132228   -3.6303762265
     H    15.4103247473   -2.8152632792   -2.5630937821
     H    15.4140639140   -1.4053707944   -0.5135081960
     H    13.2807505876   -0.6115481008    0.4447868211
