46
-2.5894178091593253e+03 frame 92   xyz file generated by TeraChem
     O    -1.5302310475   -0.7234612735   -0.8837056726
     C    -0.8674481000   -0.6531933081    0.3594545635
     C     0.2110146709   -1.7232869818    0.4995697379
     C     1.3440595561   -1.1532492828   -0.3463769372
     O     1.2445440311    0.2599264820   -0.1736780792
     C    -0.0401164975    0.6314322794    0.3480018211
     C     0.1296557919    1.2295565023    1.7339301394
     O     1.1721195955    2.2105114696    1.7074141286
     P     0.9390602007    3.7823662149    1.5951983387
     O     0.9382424374    4.5791699932    2.8296649107
     O     2.1779171309    4.1981899477    0.6453385335
     P     2.6188783555    3.6048291576   -0.8102357684
     O     1.6170662482    3.8249819447   -1.8619920967
     O     3.9740523305    4.4340038779   -1.0391798952
     P     5.3623862188    4.4435740187   -0.1826590379
     O     5.3797833238    3.6809001348    1.0702380947
     O     6.4239511044    3.9256050252   -1.2518608164
     O     5.5515554047    6.0281635053   -0.0731033862
     O     3.1462428879    2.1415341779   -0.5694416972
     O    -0.3930207158    3.8345894221    0.7114178176
     N     2.6661855103   -1.5745832286    0.0298374034
     C     3.3537050552   -1.2876123877    1.1897364634
     N     4.5452314969   -1.8203455037    1.2386261835
     C     4.6566093584   -2.5004836154    0.0443943879
     C     3.5061302635   -2.3586380140   -0.7275242763
     N     3.2751481496   -2.8814673126   -1.9341149284
     C     4.3238828849   -3.5856010534   -2.3580048285
     N     5.4903350925   -3.8078452959   -1.7433193500
     C     5.6875449775   -3.2733198162   -0.5264205549
     N     6.8475670545   -3.5177797579    0.1120258917
     H    -2.0236623870   -1.5559066483   -0.9121030413
     H    -1.5794150319   -0.6669308340    1.1970587817
     H    -0.1153960355   -2.7046750973    0.1454381137
     H     0.5308447191   -1.8208361250    1.5431467978
     H     1.2293176031   -1.4083325879   -1.4040703825
     H    -0.4776597097    1.3661369027   -0.3339744959
     H     0.4580834505    0.4742181295    2.4530971609
     H    -0.8151896553    1.6608490678    2.0772781676
     H     6.4271816074    4.4319545399   -2.0810413329
     H     5.9770282721    6.2638373423    0.7681264370
     H     2.4376416248    1.4486567110   -0.4784919843
     H    -0.7930215498    4.7200349674    0.6932524538
     H     2.9237481246   -0.6498497621    1.9516376495
     H     4.2220177133   -4.0434272560   -3.3403874009
     H     7.6006488707   -3.9343547100   -0.4149513868
     H     7.0819364120   -2.9779056293    0.9311900826
