57
-1.7423417876415415e+03 frame 65   xyz file generated by TeraChem
    Cl     8.3560145021   -6.0948738867   -2.2509400156
     C     7.4122526171   -4.7624540347   -1.6344414761
     C     6.7467630371   -4.8988253092   -0.4219771189
     C     5.9987622592   -3.8294165068    0.0609403568
     C     5.8995681201   -2.6304970071   -0.6529113585
     C     6.5841849417   -2.5249878368   -1.8699483846
     C     7.3398998085   -3.5800827314   -2.3649382061
     C     5.1510006195   -1.4811109033   -0.0873112061
     C     5.4210483914   -1.1073333675    1.2353000802
     C     4.8193471411    0.0017683504    1.8195742938
     C     3.9267217361    0.7694771349    1.0774534459
     C     3.6334459481    0.4033491942   -0.2309149395
     C     4.2245487831   -0.7166427944   -0.8299492111
     C     3.8173185797   -1.0626114474   -2.2028514026
     N     3.5110384399   -2.3360876186   -2.5865040141
     C     3.1603939294   -2.2439629986   -3.8644584480
     N     3.2346910032   -0.9230360733   -4.3114980571
     C     3.6519044731   -0.1682946523   -3.2459337366
     C     2.9279731009   -0.5809791115   -5.6014622770
     C     2.5382550041   -1.5423526346   -6.4787688317
     C     2.4381714357   -2.9175023666   -6.0832573753
     C     2.7509986446   -3.2375126723   -4.7737825896
     C     2.0297006930   -3.9728348753   -6.9974559471
     C     1.7264743740   -3.8307638183   -8.3054110331
     C     1.3219351728   -4.8758165564   -9.2323854064
     C     1.1375056934   -6.2226370371   -8.8724523463
     C     0.7552971263   -7.1806153894   -9.7928027884
     C     0.5371474880   -6.8481007966  -11.1512152421
     C     0.7068690826   -5.4947005799  -11.5158121244
     C     1.0893999273   -4.5500594852  -10.5784077213
     N     0.1798898550   -7.8018937263  -12.0730228585
     C    -0.1496010972   -9.1381262184  -11.6306940193
     C    -0.1871141296   -7.3963104157  -13.4109869660
     H     6.8077345373   -5.8286776457    0.1343351878
     H     5.4665894541   -3.9364187985    1.0023816115
     H     6.5315227203   -1.5992156505   -2.4353809792
     H     7.8715159368   -3.4866828568   -3.3065604878
     H     6.1459883229   -1.6865622443    1.8015825563
     H     5.0560759303    0.2689703497    2.8459047477
     H     3.4491417165    1.6405701491    1.5177270952
     H     2.9048320696    0.9728961892   -0.8020505417
     H     3.8146747046    0.8963025905   -3.3243769314
     H     3.0165483549    0.4691013087   -5.8551924249
     H     2.3008050093   -1.2399825385   -7.4920580180
     H     2.6976155024   -4.2606644028   -4.4151479540
     H     1.9824734018   -4.9626884506   -6.5455698351
     H     1.7869337454   -2.8388399362   -8.7534537405
     H     1.2906423221   -6.5331869797   -7.8422861799
     H     0.6206321540   -8.2016118513   -9.4538401933
     H     0.5361284835   -5.1775038091  -12.5382711694
     H     1.2118070002   -3.5169183793  -10.8983353126
     H     0.6991751571   -9.6049681027  -11.1164374365
     H    -0.3881504177   -9.7529672994  -12.4999506956
     H    -1.0128798700   -9.1555517556  -10.9482851833
     H     0.6407511733   -6.8742755501  -13.9061266174
     H    -1.0645375748   -6.7318954478  -13.4238080477
     H    -0.4207923769   -8.2830112278  -14.0024437516
