40
-9.8965211546724549e+02 frame 55   xyz file generated by TeraChem
     N     1.9393498400   -0.1789391779    1.2192707200
     C     2.8738486700   -0.2377980595    0.5258336764
     C     4.0226656220   -0.3399995388   -0.3038556084
     C     4.3038138754    0.5768971540   -1.2808697614
     C     3.5937567977    1.7456073802   -1.6736142891
     C     2.4129086430    2.2828468792   -1.1637533726
     N     2.0877344466    3.4204847825   -1.8190301696
     C     3.0385047715    3.6739291235   -2.7949170391
     C     4.0039659825    2.6455018330   -2.7322210043
     C     5.0891907247    2.6789488450   -3.6159017559
     C     5.1779928813    3.7226182725   -4.5258443336
     C     4.2045405611    4.7358964536   -4.5707779154
     C     3.1190641815    4.7270078944   -3.7066632046
     C     0.8885899927    4.2088047826   -1.5839079604
     C    -0.2322473710    3.8776937086   -2.5593113510
     C     4.9009996397   -1.4804543250   -0.0661535558
     N     5.9985687904   -1.7485063554   -0.7412977832
     C     6.4911846770   -2.9035855932   -0.1727584524
     C     5.6497068601   -3.3328488591    0.8797731279
     N     4.6430287021   -2.3982787940    0.9187420818
     C     5.9060138858   -4.4756513263    1.6328771295
     C     7.0473994174   -5.1958727701    1.3021731096
     C     7.8974966728   -4.7867994678    0.2583556453
     C     7.6350703497   -3.6458258816   -0.4874714216
     H     5.2162876632    0.3650715325   -1.8353698413
     H     1.7792950121    1.9262696267   -0.3633276684
     H     5.8506404402    1.9036073460   -3.5925809555
     H     6.0148976036    3.7596686567   -5.2176142188
     H     4.3024494857    5.5397561810   -5.2949208899
     H     2.3658767662    5.5087729750   -3.7419462630
     H     1.1666782227    5.2656959742   -1.6498701090
     H     0.5753415413    4.0206271348   -0.5532399693
     H     0.0752162421    4.0602979873   -3.5936875885
     H    -1.1058132990    4.5020942763   -2.3460433000
     H    -0.5272442074    2.8277061735   -2.4677872858
     H     3.8568576066   -2.3851642629    1.5534638394
     H     5.2485153231   -4.7897869544    2.4383731022
     H     7.2881162167   -6.0948420329    1.8628561233
     H     8.7794952960   -5.3803689726    0.0337479417
     H     8.2914792784   -3.3302340768   -1.2931765392
