69
-2.2190987916938875e+03 frame 70   xyz file generated by TeraChem
     O     3.3653459639    1.3411152679    0.4256717540
     N     4.3970858342    0.6900990962    0.3525987416
     O     5.2712171077    0.6811889646    1.2045550831
     C     4.5952779550   -0.1383197935   -0.8319943748
     C     3.6382046592   -0.1091822839   -1.8308994859
     C     3.8173221583   -0.9207477674   -2.9525677736
     C     3.0123938702   -1.0611770990   -4.1489883473
     C     1.8494484358   -0.4363737709   -4.5560409369
     C     1.0534852310    0.5379724072   -3.9309233082
     C    -0.0997325446    0.9824133276   -4.5503097800
     C    -0.9403453762    1.9881160648   -4.0466830709
     C    -2.1169160406    2.4786716460   -4.5843571245
     C    -2.7947659454    3.6905526998   -4.1164547777
     C    -2.5536105288    4.6391579012   -3.1370736654
     C    -3.4728235312    5.7051798760   -3.0132149108
     C    -4.5898626938    5.8404900023   -3.8277379661
     C    -4.8546041199    4.8876058529   -4.8431032477
     C    -3.9231524630    3.8492399015   -4.9302441968
     C    -3.9861970008    2.8020582768   -5.8588119531
     N    -2.8816013813    1.9735903280   -5.6258659421
     C    -2.7446008632    0.6712989074   -6.2474026110
     C    -1.8082844625    0.6102448276   -7.4361008239
     C    -1.5190103794    1.7367851293   -8.2061886464
     C    -0.6721537075    1.6361397750   -9.3085340028
     C    -0.1053430337    0.4109946119   -9.6503985281
     C    -0.3895453811   -0.7188135059   -8.8848441540
     C    -1.2368821733   -0.6180389255   -7.7845436607
     C    -5.0234245704    2.7583370442   -6.7637486245
     C    -5.9878928502    3.8014922981   -6.6913706331
     C    -5.9264644960    4.8366088978   -5.7779333327
     C     3.6739592277   -2.0780472278   -4.9430409756
     C     4.8085275896   -2.5816267733   -4.2444799359
     C     4.9540113323   -1.7853668638   -3.0436756583
     C     5.9417705902   -1.6766612855   -2.0508610045
     C     5.7644243041   -0.8896578330   -0.9300322350
     N     7.2785472014   -2.2413175570   -2.2155365946
     O     7.7171604047   -2.2905912190   -3.3554091525
     O     7.8932469914   -2.5610102556   -1.2153821922
     C     5.4738167287   -3.6903633140   -4.7961018509
     C     5.1480537983   -4.1833746147   -6.0441913654
     C     4.0861681108   -3.5950930103   -6.7341379422
     C     3.3224760021   -2.5757228779   -6.1976964343
     N     3.7358809234   -4.1189055481   -8.0499371522
     O     4.4231632912   -5.0194576368   -8.5035932523
     O     2.7752816296   -3.6242243738   -8.6223433101
     N     6.4109954971   -4.4993237842   -4.0223495995
     O     6.2014900583   -4.5822628706   -2.8209048848
     O     7.2925823033   -5.0866913581   -4.6209570027
     H     2.7838660538    0.5411325997   -1.7062577783
     H     1.4777686841   -0.7511743058   -5.5315121269
     H     1.3210123606    0.9567284692   -2.9659991616
     H    -0.3264925952    0.5430426808   -5.5182356358
     H    -0.6128298080    2.4970391339   -3.1421527710
     H    -1.6956280420    4.5857504969   -2.4727012590
     H    -3.2944747292    6.4516289046   -2.2442181702
     H    -5.2616454055    6.6827737712   -3.6830870990
     H    -3.7512702328    0.3612118314   -6.5517664547
     H    -2.4274018297   -0.0417794211   -5.4779361503
     H    -1.9497525980    2.6991182576   -7.9416129903
     H    -0.4521368107    2.5216615434   -9.8987757190
     H     0.5597490850    0.3361916487  -10.5062331276
     H     0.0556698321   -1.6775041275   -9.1385808830
     H    -1.4533991955   -1.5014454646   -7.1862980978
     H    -5.1196552457    1.9804890880   -7.5150935054
     H    -6.8101140428    3.7768763056   -7.4011528428
     H    -6.6906172325    5.6087472660   -5.7755556662
     H     6.5313976830   -0.8310421934   -0.1685370268
     H     5.6757413892   -5.0332773496   -6.4577636665
     H     2.4778566653   -2.1931047785   -6.7595370689
