12
-2.8533942619009946e+02 frame 60   xyz file generated by TeraChem
     O     2.3373642884    0.0688446732   -0.9487560907
     C     2.8645680323   -0.9940237344   -0.3605469472
     O     2.3580265931   -1.5642340187    0.5923912767
     C     4.1613584532   -1.4183863492   -0.9965269074
     N     0.1049908789    0.5277571944    0.4326393452
     H     4.0078441083   -1.6152092966   -2.0622858212
     H     4.5461752194   -2.3123090735   -0.5045585053
     H     4.8941736248   -0.6084737738   -0.9187548310
     H     0.2411448001   -0.2401769383    1.0871780445
     H     0.0319307636    1.3835848523    0.9767493730
     H    -0.7915586675    0.3825659165   -0.0245138253
     H     1.4632955503    0.3058340740   -0.4656871358
