75
-1.7633780117705246e+03 frame 92   xyz file generated by TeraChem
     C     7.3284457003    2.5560190075   -0.3598414580
     C     6.0671075623    1.7457268916   -0.2351676776
     C     4.8766639448    2.3198871277    0.2120012368
     C     3.6981173356    1.5787469206    0.3624338805
     C     3.7311631323    0.2290965536    0.0321874261
     C     4.9136627317   -0.3691735979   -0.4180911827
     C     6.0688040958    0.3749997389   -0.5511636741
     C     4.6246352972   -1.8078896973   -0.7844819953
     C     4.4855002501   -1.8933435767   -2.3128142623
     C     5.6875363259   -2.7981499379   -0.3180746978
     C     3.2336797729   -2.0346325049   -0.0738585914
     N     2.6927091011   -0.6981529394    0.0324340525
     C     1.4761601936   -0.4546957202    0.7682717749
     C     2.2882900925   -2.9434591522   -0.7856308012
     C     1.5960281098   -3.9000120348   -0.1549109870
     C     1.7630212777   -4.1525831332    1.2612171377
     C     2.7617872538   -3.4306758505    1.9083996423
     O     3.5367362780   -2.5403277285    1.2600297838
     C     3.0489077122   -3.6581196023    3.2878659173
     C     2.2998349065   -4.5991396099    3.9708738347
     C     1.2650537055   -5.3314996159    3.3586089679
     C     0.9804176800   -5.1093425044    1.9784846930
     C    -0.0716770916   -5.8547370494    1.3893506444
     C    -0.7896635014   -6.7692645680    2.1250199840
     C    -0.5007503012   -6.9900418001    3.4896228318
     C     0.5076093772   -6.2803562098    4.0920301229
     C     4.1100526152   -3.0009485738    4.0454820452
     N     4.5260143013   -3.3782480655    5.2198314097
     C     5.4830186720   -2.4583701172    5.5912726707
     C     5.6291120201   -1.5445538724    4.5729705731
     O     4.7361777216   -1.8943257180    3.5936130600
     C     6.4768222234   -0.3882047102    4.3148369243
     C     7.7725140545   -0.3176870939    4.8501368163
     C     8.5692865434    0.7970075220    4.6208486796
     C     8.0919612818    1.8552368953    3.8485007614
     C     6.8154188242    1.7820723126    3.2952156628
     C     6.0128540391    0.6684908721    3.5185568462
     C     6.1183188747   -2.5660225970    6.9116048251
     C     6.2972379437   -3.8364447421    7.4747800510
     C     6.8633252327   -3.9782539298    8.7370816512
     C     7.2529565374   -2.8531704148    9.4611940776
     C     7.0645727554   -1.5845426764    8.9155495577
     C     6.4979682984   -1.4396347237    7.6533815367
     H     7.1250860783    3.6269652073   -0.2588806550
     H     7.8155885781    2.3961833997   -1.3289036683
     H     8.0559409110    2.2821147456    0.4154165786
     H     4.8612702895    3.3805314037    0.4559288570
     H     2.7897757758    2.0565011050    0.7180578422
     H     6.9861727403   -0.0934391819   -0.9048591490
     H     5.4325088389   -1.5938314894   -2.7730804684
     H     3.7033596521   -1.2238094931   -2.6865600637
     H     4.2599844204   -2.9158735242   -2.6363494598
     H     6.6163176414   -2.6219768760   -0.8719442625
     H     5.3705128299   -3.8287351226   -0.5149395718
     H     5.8951521993   -2.6957761479    0.7487351316
     H     0.7700647465   -1.2645558934    0.5690660412
     H     1.0209656427    0.4812568008    0.4295302730
     H     1.6486054622   -0.3893350920    1.8528175471
     H     2.1356047672   -2.7548545973   -1.8420655352
     H     0.8995316559   -4.5070518496   -0.7241240576
     H     2.5250998451   -4.7718755864    5.0190050559
     H    -0.3277435542   -5.7051637051    0.3457426632
     H    -1.5919623989   -7.3269503854    1.6491418669
     H    -1.0773710775   -7.7161284622    4.0556211303
     H     0.7447020172   -6.4317675264    5.1424687296
     H     8.1556002704   -1.1447180938    5.4399484562
     H     9.5707905077    0.8350536016    5.0409818734
     H     8.7139872729    2.7289069090    3.6732042082
     H     6.4360120614    2.5949542625    2.6835465505
     H     5.0228177327    0.6181997963    3.0748156367
     H     5.9843500041   -4.7100515548    6.9107084922
     H     6.9998694041   -4.9714992535    9.1567239375
     H     7.6945636009   -2.9636066752   10.4480143650
     H     7.3494666695   -0.7004018709    9.4797825554
     H     6.3353930110   -0.4457798627    7.2466415430
