43
-1.1785027731495384e+03 frame 27   xyz file generated by TeraChem
     O    -0.7641481888   -1.1568823195    3.3315849539
     C    -0.5487381277   -0.5256486462    2.2667356891
     C     0.2336513247    0.6943732156    2.2438739653
     C     0.4823292441    1.3880418172    1.0863215994
     C    -0.0162169881    0.9471890851   -0.1652808580
     C    -0.7667872307   -0.2062919694   -0.2043330729
     C    -1.0494383931   -0.9513851255    0.9619368908
     C    -1.8248882110   -2.1458489812    0.9132209925
     N    -2.3620944183   -2.6429216084   -0.1647555295
     C    -2.9640525987   -3.8776850361   -0.1000907382
     C    -2.4962130451   -4.9349888832    0.6804114032
     C    -3.1193586934   -6.1946116561    0.6789543330
     C    -4.2193128385   -6.4477756499   -0.1104797790
     C    -4.7282097355   -5.4209071355   -0.9366453387
     C    -4.1083606601   -4.1314231028   -0.9433132002
     N    -4.5744312554   -3.1256527561   -1.7132896921
     C    -5.6234360069   -3.3392930865   -2.4868636198
     C    -6.3083321711   -4.5749474396   -2.5595279158
     C    -5.8519200485   -5.6051915834   -1.7806344621
     C    -6.0488553658   -2.1921072720   -3.2881867307
     N    -7.0469059086   -2.1518778183   -4.1475064004
     C    -7.0313270656   -0.8617696156   -4.6332192778
     C    -5.9825452295   -0.1206524364   -4.0322705486
     N    -5.3800252681   -1.0072290112   -3.1807623442
     C    -5.7376330429    1.2166997646   -4.3405400200
     C    -6.5762096358    1.8052101815   -5.2783074077
     C    -7.6218874392    1.0855805808   -5.8873887858
     C    -7.8619699733   -0.2453603703   -5.5760983455
     H     0.6213323596    1.0414550846    3.1998646611
     H     1.0778584716    2.3002332132    1.1280224900
     H     0.1921902545    1.5117427481   -1.0705033844
     H    -1.1686382756   -0.5775893942   -1.1458533669
     H    -1.9677286936   -2.6287230702    1.8896088933
     H    -1.6055800122   -4.7821258798    1.2834575582
     H    -2.7121764700   -6.9826287298    1.3084428219
     H    -4.6981675794   -7.4237850561   -0.1162166259
     H    -7.1648973670   -4.6772095701   -3.2174716444
     H    -6.3433418827   -6.5755972139   -1.7985096896
     H    -4.5880928517   -0.8766936087   -2.5640003173
     H    -4.9311942184    1.7716199545   -3.8699963212
     H    -6.4211436719    2.8464403823   -5.5483094115
     H    -8.2528568061    1.5873839985   -6.6162976980
     H    -8.6683706297   -0.8023848582   -6.0448404780
