49
-1.4433934015337745e+03 frame 73   xyz file generated by TeraChem
     O    -1.6222638071    7.8735184914   -2.9205376795
     N    -0.6411525723    8.5836451049   -2.7625936159
     O    -0.5285520201    9.7158300146   -3.2073274291
     C     0.4728435540    8.0424828886   -1.9890092490
     C     0.3651872742    6.7583771523   -1.4625690060
     C     1.4225482233    6.2502900827   -0.7267422299
     C     2.5732041049    7.0257905813   -0.5240790791
     C     2.6586324301    8.3151280747   -1.0649489193
     C     1.6033206500    8.8293984345   -1.8027125950
     C     3.6682411816    6.4722924536    0.2524388793
     N     3.7540471210    5.3008040951    0.8072234321
     N     4.9748536050    5.2455995385    1.4285683721
     C     5.5577365261    6.3898990524    1.2136264967
     O     4.7803908306    7.2146697299    0.4710599231
     C     6.8634544965    6.8387119679    1.6568137007
     C     7.6646595499    5.9758377213    2.4164710695
     C     8.9119123118    6.3884266362    2.8553042347
     C     9.3859187217    7.6653449250    2.5302271100
     C     8.5903076352    8.5252319107    1.7661137653
     C     7.3351914537    8.1176429584    1.3390468433
     N    10.6552864950    8.0807274142    2.9717793849
     C    11.8447069953    7.3680745148    2.8190575774
     C    12.0727989453    6.1468543156    2.1847618108
     C    13.3784525714    5.6703650410    2.1541814029
     C    14.4353386523    6.3894741527    2.7310734882
     C    14.2042861162    7.6132248839    3.3453011354
     C    12.9009036737    8.1136116687    3.3898129708
     C    12.3210667318    9.3276180799    3.9143191909
     C    10.9364697459    9.2741834998    3.6365050494
     C    10.0690705523   10.2841494354    4.0532430632
     C    10.6177583441   11.3649567686    4.7340662345
     C    11.9923042732   11.4419102762    5.0019266955
     C    12.8478818335   10.4249333779    4.5994012598
     H    -0.5350151713    6.1799116752   -1.6329105246
     H     1.3691775521    5.2534498799   -0.3018899587
     H     3.5497201922    8.9133728587   -0.9072546427
     H     1.6455854215    9.8234776456   -2.2317205687
     H     7.2936376459    4.9882775599    2.6718080100
     H     9.5191747165    5.7301540229    3.4684613001
     H     8.9671129751    9.5059467923    1.4936098019
     H     6.7259984965    8.7903224142    0.7436133289
     H    11.2661502858    5.5861559495    1.7234176735
     H    13.5804895159    4.7198433279    1.6679531940
     H    15.4432746612    5.9865328508    2.6905610923
     H    15.0242158716    8.1782289913    3.7811587775
     H     9.0016570642   10.2307480414    3.8641119746
     H     9.9622098403   12.1648806600    5.0674263953
     H    12.3876277149   12.3019481820    5.5348174030
     H    13.9113491149   10.4765551644    4.8182187749
