68
-2.2351444648662464e+03 frame 52   xyz file generated by TeraChem
     O    -0.2729443052    0.3510722097   -1.8063230169
     N     0.5604172506   -0.1459958768   -2.5514564823
     O     0.6625528744   -1.3439405445   -2.7673405572
     C     1.4928175690    0.7475827421   -3.2261223310
     C     1.3963477169    2.1068017233   -2.9925288432
     C     2.2876610753    2.9693467353   -3.6394104790
     C     2.4443962085    4.3993301492   -3.5517518677
     C     1.7786949687    5.3659769008   -2.7933010872
     C     0.7262754834    5.2167234318   -1.9049700535
     C     0.0892621894    6.2377497436   -1.1790456714
     N    -0.8816046171    5.9803490878   -0.2442137405
     C    -1.3321969924    4.6826912947    0.1444474060
     C    -0.4945961656    3.8564134099    0.8923355508
     C    -0.9442127981    2.5941109804    1.2675389803
     C    -2.2239234243    2.1724843355    0.9108423137
     C    -3.0576435176    3.0109900671    0.1742331966
     C    -2.6131618780    4.2705925178   -0.2179501672
     C    -1.3529687386    7.1724325955    0.2911258210
     C    -0.6402292890    8.1995764863   -0.3326007768
     N     0.2389445868    7.5975559902   -1.2288923790
     C     1.0914109913    8.3436351593   -2.1015087606
     C     2.3437321808    8.7528559071   -1.6474817626
     C     3.1699478307    9.4789310574   -2.5009781084
     C     2.7403710959    9.7959118978   -3.7888430164
     C     1.4789027208    9.3945240917   -4.2256411810
     C     0.6445056405    8.6684538519   -3.3805424415
     C    -0.8615602639    9.5351074997   -0.0254575819
     C    -1.8289153653    9.8041464840    0.9405466109
     C    -2.5394155050    8.7745737179    1.5710394671
     C    -2.3140921302    7.4357541601    1.2586484617
     C     3.5119265108    4.7286007950   -4.4633970193
     C     3.9667738026    3.5492211297   -5.1332858958
     C     3.2651003778    2.4370209621   -4.5503424977
     C     3.3753097778    1.0378131570   -4.6532683930
     C     2.4851776789    0.1869333680   -4.0324296343
     N     4.5338888303    0.3916302694   -5.2618993366
     O     5.6076644910    0.9647851073   -5.1464689852
     O     4.3771957378   -0.6979396825   -5.7821375924
     C     4.9057312959    3.7097128253   -6.1707166504
     C     5.4929008937    4.9275285379   -6.4386529943
     C     5.0892531431    6.0376114943   -5.6895981208
     C     4.0904159771    5.9721404670   -4.7371390779
     N     5.7169590672    7.3222621050   -5.9658602471
     O     6.5624877487    7.3660933393   -6.8463112637
     O     5.3679306984    8.2861980003   -5.2974887634
     N     5.1812662725    2.6561035909   -7.1430648441
     O     4.2569762114    1.9037607364   -7.4165727116
     O     6.2801131563    2.6291204239   -7.6669245471
     H     0.6325976175    2.4509322691   -2.3094406661
     H     2.1601559850    6.3729133785   -2.9285988239
     H     0.3186369703    4.2364924731   -1.7002258667
     H     0.4968437859    4.2028588203    1.1693385297
     H    -0.2941383154    1.9410231539    1.8420503285
     H    -2.5700669400    1.1860141926    1.2049609063
     H    -4.0535710358    2.6816746211   -0.1069225746
     H    -3.2458064064    4.9295075077   -0.8057382705
     H     2.6643168890    8.4881415735   -0.6441453724
     H     4.1528088843    9.7924497786   -2.1620295996
     H     3.3951626630   10.3485393865   -4.4554461068
     H     1.1438099516    9.6439557280   -5.2280830714
     H    -0.3378913246    8.3396756837   -3.7064295759
     H    -0.3049171343   10.3274386302   -0.5152520936
     H    -2.0339199759   10.8357925303    1.2100581155
     H    -3.2832485873    9.0234464730    2.3218687988
     H    -2.8613299775    6.6347808979    1.7447232720
     H     2.5842119609   -0.8864643913   -4.1283675851
     H     6.2146686398    5.0291213710   -7.2385928591
     H     3.7826972326    6.8802335426   -4.2302829853
