72
-2.3124470193019915e+03 frame 57   xyz file generated by TeraChem
     O     2.2770875936    6.5374739665    1.2423721390
     N     3.3640244462    7.0039876513    0.9183488120
     O     4.0669336771    7.6769272066    1.6576060378
     C     3.8426842489    6.7513296473   -0.4294439979
     C     3.1235087112    5.8972478855   -1.2445148584
     C     3.5771020321    5.6602276945   -2.5470998609
     C     3.0578352197    4.7942749679   -3.5745363445
     C     1.9100585571    3.9841264333   -3.6248860349
     C     0.7078410884    4.0344282808   -2.9311769650
     C     0.1846263191    5.1425709366   -2.2466639182
     C    -0.9889278720    5.0961377102   -1.5188079776
     C    -1.6265738685    6.1568292327   -0.8480759392
     N    -2.6503289237    5.9636560622    0.0409697959
     C    -3.1336634051    4.6956085577    0.4837237150
     C    -2.3224923020    3.8912546662    1.2828312521
     C    -2.8073261458    2.6632734891    1.7220670478
     C    -4.0938886288    2.2537302773    1.3755384502
     C    -4.8994490892    3.0699298916    0.5844203446
     C    -4.4206356981    4.2957622690    0.1297604375
     C    -3.0895704479    7.1889235233    0.5270784950
     C    -2.3029777861    8.1668941282   -0.0875832934
     N    -1.4138687170    7.5030667075   -0.9280042179
     C    -0.5187551559    8.1818266621   -1.8132132869
     C     0.6952573714    8.6547224488   -1.3214190865
     C     1.5528118242    9.3370421441   -2.1809593767
     C     1.1937019800    9.5398976530   -3.5117906623
     C    -0.0279529721    9.0673152561   -3.9893999964
     C    -0.8951842315    8.3887173587   -3.1386336159
     C    -2.4793748728    9.5191417962    0.1751636435
     C    -3.4748972200    9.8540165282    1.0893045683
     C    -4.2572290737    8.8728189211    1.7136061202
     C    -4.0792537883    7.5184126080    1.4448483719
     C     4.0558407457    4.7931399866   -4.6099674061
     C     5.1600000598    5.6286597064   -4.2395224315
     C     4.8248731513    6.2310210750   -2.9818689112
     C     5.4315333573    7.1937588121   -2.1476776383
     C     4.9769792450    7.4425772293   -0.8718511463
     N     6.4518101212    8.1105959590   -2.6426781690
     O     6.4050267226    8.4008630538   -3.8300102062
     O     7.2405230483    8.5833049775   -1.8431977514
     C     6.2792564137    5.6433504254   -5.0978923205
     C     6.2680936649    5.0034764519   -6.3182226442
     C     5.1288767235    4.2738753771   -6.6792818099
     C     4.0377387398    4.1365622032   -5.8445500907
     N     5.1178933778    3.5969237050   -7.9679839502
     O     6.0921492525    3.7362753873   -8.6923535032
     O     4.1346687736    2.9282124826   -8.2543124402
     N     7.5764301787    6.1611308226   -4.6778847451
     O     7.8598050371    6.0449169376   -3.4938339372
     O     8.3214997307    6.6109979216   -5.5301114947
     H     2.2360891434    5.4193534594   -0.8503325181
     H     1.9806249924    3.1589959779   -4.3350337201
     H     0.0674724183    3.1566323250   -3.0065821863
     H     0.7226349868    6.0821245258   -2.3339618170
     H    -1.4746905572    4.1324455303   -1.3921225143
     H    -1.3264210096    4.2296925605    1.5531751543
     H    -2.1799912913    2.0296360644    2.3420569461
     H    -4.4695910253    1.2960969583    1.7244217367
     H    -5.9015222504    2.7512045478    0.3128017069
     H    -5.0318972939    4.9377086439   -0.4980640330
     H     0.9613530525    8.4706686208   -0.2847532074
     H     2.5055620571    9.7034754778   -1.8103420085
     H     1.8691447328   10.0664326123   -4.1798239090
     H    -0.3079821529    9.2282510113   -5.0262827383
     H    -1.8509415060    8.0136588681   -3.4926886651
     H    -1.8665537489   10.2736117750   -0.3070167679
     H    -3.6455752558   10.9001225640    1.3245905099
     H    -5.0198941692    9.1739356841    2.4253860474
     H    -4.6815841269    6.7550489196    1.9261257198
     H     5.4582514812    8.1835273600   -0.2471484599
     H     7.1373069517    5.0250479856   -6.9628316014
     H     3.1968579272    3.5315599023   -6.1638257470
