48
-1.6760305354387324e+03 frame 208   xyz file generated by TeraChem
     C     1.0521824285   -0.9897465719   -1.4466718447
     C     0.0450623040   -2.0030300436   -1.4618749676
     C     0.6264211167   -3.2103247825   -0.9912446589
     C     2.0007736784   -2.9520773053   -0.6937678680
     C     2.2522989979   -1.5747535823   -0.9674290235
     F    12.2118634684   -2.5928637425   -9.5649687840
     C    11.0545215391   -2.7869221567  -10.2258721081
     C     9.8817660631   -2.7128949423   -9.2932825794
     C     9.8157989552   -1.6473902879   -8.3924523452
     C     8.7363757767   -1.5384860478   -7.5315879867
     C     7.7149606255   -2.4968760108   -7.5662224492
     C     7.7845089833   -3.5584724677   -8.4710395254
     C     8.8684477658   -3.6659269986   -9.3360094984
     C     6.5772603275   -2.3928678869   -6.6497089394
     N     6.4710958441   -1.4273881151   -5.7654339308
     O     5.2830673375   -1.6961344991   -5.1163487806
     C     4.7924712832   -2.8053033461   -5.6806358854
     N     5.5359450698   -3.2870909063   -6.6305455525
     C     3.5469324997   -3.3222606741   -5.1903541079
     N     2.8114501946   -2.8627117213   -4.2342345030
     N     1.7275977912   -3.6780363704   -4.1169875844
     C     1.8417016063   -4.6683414969   -5.0457709753
     O     3.0030135729   -4.4328683806   -5.7514485973
     C     1.0236494617   -5.7257377089   -5.3268563024
     C    -0.1708811447   -5.9608407155   -4.6068540595
     C    -1.0558451366   -6.9904263353   -4.8122913755
     C    -0.9892717771   -8.0656105076   -5.7895465471
     C    -2.0935587512   -8.8488994017   -5.6205126436
     C    -2.8986708099   -8.3061781254   -4.5356738132
     C    -2.2779375471   -7.1932168558   -4.0505631931
     F    10.9922238922   -1.8339370944  -11.1761958850
     F    11.1430824278   -3.9679178108  -10.8537390234
    Fe     1.6126972093   -2.5664584531   -2.6265806992
     H     0.9401177416    0.0227808238   -1.8138189051
     H    -0.9612571836   -1.8904210251   -1.8461288429
     H     0.1369281376   -4.1752473901   -0.9446082754
     H     2.7333818395   -3.6829345033   -0.3747374232
     H     3.2168192483   -1.0850271981   -0.9114064491
     H    10.6112855149   -0.9089141971   -8.3625136265
     H     8.6814062902   -0.7144748196   -6.8274014606
     H     6.9912288560   -4.2985387116   -8.4927052887
     H     8.9263223605   -4.4917543944  -10.0369171833
     H     1.3279570167   -6.3829517866   -6.1342904356
     H    -0.4122686653   -5.2538672092   -3.8121768310
     H    -0.1975466484   -8.2062943053   -6.5164673262
     H    -2.3436358737   -9.7358367090   -6.1941018797
     H    -3.8342238894   -8.7291551487   -4.1846066823
     H    -2.6101008690   -6.5497020648   -3.2427120942
