66
-2.0299456069576127e+03 frame 48   xyz file generated by TeraChem
     O     1.4514296129    3.8645044116   -7.1716928959
     N     2.2737685645    3.6439442017   -8.0490850279
     O     2.6243333390    4.4591553338   -8.8881392891
     C     2.8819874215    2.3200994000   -8.0952949614
     C     2.4871625301    1.3736418879   -7.1677704350
     C     3.0819486248    0.1089735927   -7.2019490805
     C     2.8933269936   -1.0444806662   -6.3426604540
     C     2.0169001267   -1.2932069890   -5.2949331574
     C     0.8146218526   -0.6754471773   -4.9019472472
     C    -0.0384326309    0.0474462667   -5.7198732548
     C    -1.2434224895    0.6863142391   -5.3591556416
     C    -1.6916604910    0.8759587541   -4.0644205683
     C    -2.9053976651    1.5183320520   -3.7585130481
     C    -3.4821823868    1.8223974094   -2.5386635534
     N    -2.9785973817    1.6783198724   -1.2855958281
     C    -1.6391161210    1.2481895672   -0.9573456296
     C    -3.9165856559    2.0708835258   -0.3134053270
     C    -5.0715973528    2.5272407859   -0.9488983148
     C    -4.8853091659    2.4223537510   -2.4420552373
     C    -5.9282943575    1.4916073448   -3.0773949251
     C    -4.9270400619    3.8076503877   -3.1072568098
     C    -6.1423376660    2.9824969534   -0.1991651771
     C    -6.0442027159    2.9701861115    1.1957863084
     C    -4.8859179396    2.5050817249    1.8160686809
     C    -3.7988358067    2.0435967060    1.0707697207
     C     3.9401927380   -1.9728128525   -6.7176311675
     C     4.7403789929   -1.4182601173   -7.7599176775
     C     4.1478992251   -0.1513289597   -8.1207761198
     C     4.4026389655    0.8052640263   -9.1216162535
     C     3.8003707285    2.0453102398   -9.1099182496
     N     5.1779744462    0.4876354694  -10.3162011340
     O     5.1520058941   -0.6743602014  -10.6962045847
     O     5.7430710908    1.3978097888  -10.8942643908
     C     5.8861923186   -2.1335056963   -8.1539816153
     C     6.1560619273   -3.3952023845   -7.6641368516
     C     5.2924432703   -3.9374708154   -6.7101992975
     C     4.2049540992   -3.2457959488   -6.2105777536
     N     5.5829113072   -5.2670464537   -6.1860459970
     O     6.5537922466   -5.8550750785   -6.6357597996
     O     4.8367357245   -5.7153076057   -5.3281812252
     N     6.9528394084   -1.5270542470   -8.9440645164
     O     7.1521312413   -0.3331690589   -8.7720944612
     O     7.6168386721   -2.2499474699   -9.6635982208
     H     1.7389733801    1.6409702976   -6.4331041688
     H     2.3140144604   -2.1232259632   -4.6527869334
     H     0.4872225254   -0.9047768261   -3.8895594209
     H     0.2126716602    0.0840655820   -6.7787494256
     H    -1.8491711856    1.0868319341   -6.1700760720
     H    -1.0669751942    0.4989811001   -3.2615119578
     H    -3.5079723268    1.8120804530   -4.6160131417
     H    -0.9166197370    1.7799976805   -1.5829476456
     H    -1.5207787446    0.1684114764   -1.0998001951
     H    -1.4286573226    1.4884886764    0.0845875897
     H    -5.9087628671    0.5001518680   -2.6146697874
     H    -5.7444698195    1.3785200121   -4.1507665463
     H    -6.9296395861    1.9148822567   -2.9451035939
     H    -4.1785623731    4.4780135480   -2.6736557640
     H    -5.9162750110    4.2550721342   -2.9633939646
     H    -4.7416865522    3.7283152396   -4.1835739153
     H    -7.0462310819    3.3436583427   -0.6836240904
     H    -6.8758183674    3.3221290715    1.7990561011
     H    -4.8228010642    2.4950604490    2.9005359053
     H    -2.9097577606    1.6747841395    1.5720184018
     H     4.0135522919    2.7717472789   -9.8834676223
     H     7.0399097408   -3.9336737710   -7.9812441042
     H     3.5904178274   -3.7053576585   -5.4451543141
