71
-2.2781729132982618e+03 frame 57   xyz file generated by TeraChem
     O     0.8840691841    0.8410400279    0.7244554938
     N     1.6878487451    1.3478778989    1.4931230882
     O     2.1028045741    2.4924856646    1.4041027567
     C     2.1827601841    0.5308516189    2.5959800055
     C     1.7587649637   -0.7825797962    2.6922737043
     C     2.2161859229   -1.5588387772    3.7589702023
     C     1.9823996777   -2.9527780114    4.0779836878
     C     1.2671492535   -3.9379629267    3.4186486503
     C     0.5046351370   -3.8807937684    2.2428625075
     C    -0.1455895174   -4.9986984102    1.7508052291
     C    -0.9258799082   -5.0208333481    0.5846408982
     C    -1.5648730040   -6.1584432601    0.1280402497
     C    -2.3486973421   -6.2038502877   -1.0333528398
     C    -3.0202090916   -7.3163434835   -1.5325333088
     C    -3.0261001428   -8.6167531461   -0.9267858557
     C    -3.7022523642   -9.6503027695   -1.4894569651
     O    -4.4210060071   -9.4829344215   -2.6303910245
     C    -4.4690780453   -8.2709146028   -3.2434228666
     C    -3.7859911559   -7.2122063195   -2.7393257839
     C    -5.2877896076   -8.2857433163   -4.4583760748
     C    -5.6059498712   -9.5013859121   -5.0813578814
     C    -6.3735039029   -9.5160316455   -6.2401196766
     C    -6.8365173615   -8.3233541006   -6.7912628057
     C    -6.5305536630   -7.1112638378   -6.1733981817
     C    -5.7657718747   -7.0900710936   -5.0147700136
     C    -3.7860987780  -11.0175807034   -0.9681576479
     C    -4.8642532738  -11.8421863236   -1.3205327457
     C    -4.9562080868  -13.1314365629   -0.8091731380
     C    -3.9750111282  -13.6168505895    0.0526783536
     C    -2.8945841027  -12.8062975003    0.3986798616
     C    -2.7968263027  -11.5172683391   -0.1091591199
     C     2.6882451694   -3.1874415001    5.3216660262
     C     3.2902329125   -1.9782252995    5.7769837818
     C     3.0801127282   -0.9850315928    4.7465706267
     C     3.5634002474    0.3152695980    4.5228047986
     C     3.1031769684    1.0927562448    3.4787662391
     N     4.6998748978    0.8608819425    5.2585780140
     O     5.5471463922    0.0627209829    5.6318391205
     O     4.7685364280    2.0681249899    5.3960486024
     C     3.8774216635   -1.9822530697    7.0545512213
     C     4.0148482890   -3.1453530231    7.7853021985
     C     3.4943909956   -4.3272958753    7.2552613040
     C     2.8051774905   -4.3672364696    6.0575310051
     N     3.6359536507   -5.5565681699    8.0271476692
     O     4.2268988282   -5.4922382155    9.0934257257
     O     3.1565131009   -6.5794454475    7.5607010773
     N     4.2045645006   -0.7500060763    7.7655641913
     O     3.5007813137    0.2220905869    7.5330131368
     O     5.1033849787   -0.7807702201    8.5856219499
     H     1.0856589479   -1.1611958490    1.9363014230
     H     1.2966949351   -4.9226778608    3.8862455372
     H     0.4006969498   -2.9551885822    1.6860626924
     H    -0.0470839764   -5.9323430172    2.3082347432
     H    -1.0316859257   -4.0968125707    0.0161738412
     H    -1.4424769093   -7.0659131755    0.7197036108
     H    -2.4460944388   -5.2804384964   -1.6025198872
     H    -2.5047127413   -8.7932145318    0.0055037407
     H    -3.8113509762   -6.2665774905   -3.2688358981
     H    -5.2396761265  -10.4320575913   -4.6606431400
     H    -6.6079655177  -10.4640771292   -6.7160055668
     H    -7.4377085105   -8.3372307912   -7.6960140771
     H    -6.8982317422   -6.1779675677   -6.5902566745
     H    -5.5609210965   -6.1407224790   -4.5291856828
     H    -5.6356963340  -11.4628603836   -1.9827142626
     H    -5.8003557183  -13.7582574793   -1.0824339295
     H    -4.0481012881  -14.6254406616    0.4497418407
     H    -2.1184024983  -13.1836887837    1.0582860685
     H    -1.9348037900  -10.9065430226    0.1424173343
     H     3.4780724128    2.0969468645    3.3287748214
     H     4.4755425502   -3.1331385725    8.7647519147
     H     2.3754155451   -5.3053310153    5.7255054108
