67
-2.2008550062248942e+03 frame 78   xyz file generated by TeraChem
     O     4.6741282258    1.1917085152   -0.9627347067
     N     5.7335674840    0.6094969203   -1.1592651572
     O     6.8080890128    0.9685864986   -0.7066641722
     C     5.7037598583   -0.5863525926   -1.9881628248
     C     4.5491563233   -0.8733328082   -2.6955887888
     C     4.5182245517   -2.0211322732   -3.4886543694
     C     3.4867575439   -2.5296704326   -4.3667936435
     C     2.2783393519   -1.9890995321   -4.7775565877
     C     1.6687149369   -0.7579579992   -4.4934848921
     C     0.4295825899   -0.4737258765   -5.0547963126
     C    -0.4060480857    0.6534511984   -5.0071490332
     C    -0.2035076836    1.9473668540   -4.5165340658
     C     1.0116511346    2.4902615292   -3.9892487871
     C     1.0762503126    3.7808450225   -3.5590004276
     O     0.0014307551    4.6006042068   -3.6306396916
     C    -1.1720645719    4.1572507318   -4.1480093611
     C    -1.2951448514    2.8740910909   -4.5740493308
     C    -2.2164599771    5.1837420722   -4.1471945406
     C    -2.1162166370    6.2907404341   -3.2920368386
     C    -3.1146483128    7.2575249463   -3.2787710895
     C    -4.2195135865    7.1372409356   -4.1189225437
     C    -4.3211380533    6.0438367652   -4.9782013530
     C    -3.3273353887    5.0739952979   -4.9961452680
     C     2.2578356190    4.4536283319   -3.0148637550
     C     3.2644730260    3.7152836839   -2.3790403064
     C     4.3901779410    4.3530576871   -1.8732664081
     C     4.5233364003    5.7351773549   -1.9955574462
     C     3.5216459002    6.4780836332   -2.6187508346
     C     2.3910807056    5.8458578100   -3.1218377881
     C     3.9798882650   -3.8067934842   -4.8391373208
     C     5.2529377324   -4.0843321736   -4.2596316790
     C     5.6352616562   -2.9184086392   -3.4961848307
     C     6.8128606360   -2.5079594322   -2.8480287207
     C     6.8580536540   -1.3632770421   -2.0777941197
     N     8.0979830696   -3.1585369608   -3.0862716659
     O     8.2688595938   -3.6486937121   -4.1927858671
     O     8.9348892463   -3.1164594079   -2.2035984899
     C     5.8149358250   -5.3528997471   -4.4900805099
     C     5.2436913107   -6.2483019859   -5.3710425660
     C     4.0449389944   -5.8937998138   -5.9925358403
     C     3.3848694436   -4.7098627608   -5.7220381996
     N     3.4410084123   -6.8376504308   -6.9270826604
     O     4.0372951178   -7.8802699131   -7.1456008743
     O     2.3756161228   -6.5276133550   -7.4390423879
     N     6.9182788856   -5.8743606437   -3.6888517182
     O     6.9818388328   -5.4958955812   -2.5280157190
     O     7.6597509345   -6.6944953683   -4.1972556128
     H     3.7045487728   -0.2047648942   -2.6042785701
     H     1.7089421449   -2.6186895528   -5.4623509152
     H     2.1572932643   -0.0464706909   -3.8410607344
     H     0.0050372622   -1.2950512164   -5.6345415286
     H    -1.3832500997    0.5004932605   -5.4603997552
     H     1.9227748974    1.9098611626   -3.9704237758
     H    -2.2548330834    2.5363327382   -4.9485334840
     H    -1.2611793548    6.3825043699   -2.6301745196
     H    -3.0299052361    8.1067100448   -2.6066722448
     H    -4.9976950370    7.8952304380   -4.1081948917
     H    -5.1734599920    5.9509403229   -5.6451302891
     H    -3.4040945833    4.2421641341   -5.6899156324
     H     3.1591900762    2.6432587066   -2.2471014160
     H     5.1494671666    3.7640074034   -1.3674165462
     H     5.4033554555    6.2336899174   -1.5986449879
     H     3.6215110421    7.5555546443   -2.7148866150
     H     1.6154914971    6.4251973599   -3.6126665500
     H     7.7720666934   -1.0633452843   -1.5815321840
     H     5.6926760917   -7.2183395451   -5.5420853688
     H     2.4297726344   -4.5173090873   -6.1966155051
