76
-2.3897521798687867e+03 frame 93   xyz file generated by TeraChem
     O    -1.4043403641    4.7976802574    1.2761336115
     N    -0.5059073160    5.3472058674    0.6524188918
     O    -0.3422017281    5.2377615169   -0.5542538614
     C     0.4245596999    6.1873640732    1.3892956948
     C     0.2684046870    6.3145155174    2.7557584553
     C     1.1526340427    7.1367920165    3.4649355419
     C     1.1886857412    7.4795168178    4.8645393632
     C     0.4428251841    7.0089173569    5.9583950901
     C    -0.2407777653    5.8133385162    6.1519581690
     C    -0.0334621517    4.6351161163    5.4184933812
     C    -0.7073777959    3.4231812932    5.5287114839
     C    -1.8559144411    3.2062509606    6.3015826932
     C    -2.4978994837    1.9830558521    6.3753482530
     C    -3.6723263560    1.6656724621    7.0790543562
     N    -4.1935995272    0.3979651760    7.1240468309
     C    -3.6076765215   -0.7620692680    6.5333935275
     C    -2.4602618305   -1.3168461887    7.0982404064
     C    -1.9053140062   -2.4573907836    6.5260237687
     C    -2.5013704404   -3.0409937586    5.4094389852
     C    -3.6528263756   -2.4831213358    4.8577770244
     C    -4.2107098187   -1.3362114343    5.4159901226
     C    -5.3725437967    0.3969465119    7.8581034320
     C    -5.5775067985    1.7113017223    8.2869675689
     N    -4.5168613618    2.4672940989    7.7975999827
     C    -4.4036917998    3.8783363139    7.9979876550
     C    -3.7691673817    4.3561707270    9.1423851476
     C    -3.6655779041    5.7313203518    9.3351771940
     C    -4.1972146965    6.6111525151    8.3935567086
     C    -4.8416538342    6.1205196729    7.2590333356
     C    -4.9521641310    4.7477957265    7.0575403038
     C    -6.6770196097    2.0671635937    9.0566132468
     C    -7.5680497247    1.0478875478    9.3840888799
     C    -7.3602273533   -0.2713418967    8.9593589828
     C    -6.2555869474   -0.6236080781    8.1877487153
     C     2.1447972452    8.5488907806    4.9683875720
     C     2.6926854076    8.8529865759    3.6785019440
     C     2.1277377147    7.9159375015    2.7514498449
     C     2.3212159236    7.6282708439    1.3829412102
     C     1.4753363562    6.7928208518    0.6889583555
     N     3.5226640925    8.0446185453    0.6688697488
     O     4.5405103221    8.1827637594    1.3329413517
     O     3.4628352971    8.1661626037   -0.5421613269
     C     3.5619200425    9.9596829782    3.5887573396
     C     3.9941753688   10.6383391463    4.7075301670
     C     3.5039977984   10.2442455871    5.9583733017
     C     2.5746377718    9.2336890254    6.1087721376
     N     3.9652178365   10.9582294319    7.1393021740
     O     4.7797302100   11.8558443999    6.9818259750
     O     3.5160131378   10.6192675647    8.2257896702
     N     3.9083922966   10.5763212525    2.3131266916
     O     3.0566621617   10.5445762090    1.4359781852
     O     4.9842846580   11.1395304161    2.2175778640
     H    -0.5409466955    5.7873015523    3.2450285913
     H     0.4009833959    7.6972679441    6.8040940339
     H    -0.9019630338    5.7740977369    7.0154469749
     H     0.7950547784    4.6530275073    4.7121719650
     H    -0.3263237098    2.5847333556    4.9484086213
     H    -2.2559647210    4.0504661266    6.8543240839
     H    -2.0682539755    1.1497825042    5.8260152933
     H    -2.0141840064   -0.8544289179    7.9738774672
     H    -1.0090514382   -2.8929597042    6.9577674325
     H    -2.0667806278   -3.9331917504    4.9679228089
     H    -4.1160058690   -2.9358041422    3.9860385596
     H    -5.1015651881   -0.8823856785    4.9915946086
     H    -3.3562149384    3.6549282127    9.8615767288
     H    -3.1686624251    6.1143945893   10.2216439706
     H    -4.1114550599    7.6832343396    8.5457716973
     H    -5.2584190022    6.8066942229    6.5277543405
     H    -5.4443847994    4.3466842811    6.1765484620
     H    -6.8299105432    3.0901328047    9.3846363163
     H    -8.4427266851    1.2825745673    9.9831204230
     H    -8.0761229838   -1.0386989334    9.2380387967
     H    -6.0897267593   -1.6436506615    7.8571607250
     H     1.6391538974    6.5837173273   -0.3600036225
     H     4.6633854400   11.4838846712    4.6170157187
     H     2.2054913802    8.9944559230    7.0995402426
