117
-2.8150283299540479e+03 frame 66   xyz file generated by TeraChem
     C     3.3268768905    1.7760270476    2.7854486926
     C     4.5476482036    0.9577343573    2.4846873542
     C     4.8106834796   -0.2291940588    3.1590678170
     C     5.9419291619   -1.0244030599    2.9043417578
     C     6.8101266700   -0.5770484692    1.9172586398
     C     6.5926812151    0.6172676807    1.2139811016
     C     5.4518935317    1.4144175171    1.4954136036
     O     5.2601243661    2.5720428238    0.8852918674
     C     7.5272294474    1.0630314857    0.1972026390
     N     8.5765416352    0.4009890066   -0.1394990784
     C     9.3505452350    0.8738331076   -1.1909829600
     C     8.8075755343    1.2985281318   -2.3950226973
     C     9.6233785911    1.7249870099   -3.4618198356
     C    10.9930030405    1.7323535180   -3.3431422282
     C    11.5936757407    1.3001793481   -2.1379316536
     C    10.7796492159    0.8567882462   -1.0524050659
     N    11.3092512459    0.4381364662    0.1186556885
     C    12.6224818099    0.4384055062    0.2559542159
     C    13.5215795635    0.8613290845   -0.7535060486
     C    12.9975887799    1.2871160688   -1.9440985487
     C    13.1258977815   -0.0357876987    1.5440339438
     N    14.3885082497   -0.1044546078    1.9101828999
     C    14.3493437342   -0.6046183325    3.1933129838
     C    13.0092041133   -0.8383088177    3.5909522568
     N    12.2588342579   -0.4617392008    2.5085099250
     C    12.6786262490   -1.3464243491    4.8470458987
     C    13.7344769025   -1.6164229695    5.7069237508
     C    15.0726153463   -1.3890250225    5.3299263268
     C    15.3962501251   -0.8849110300    4.0793719925
     C     6.2341013421   -2.3246534157    3.6587523956
     C     5.1989368844   -2.6077587002    4.7516177160
     C     6.2296018488   -3.5020256721    2.6714007719
     C     7.6153221619   -2.2323569758    4.3280630629
     C     0.3118775172    0.3395693765   -0.5826278116
     C     1.0877554429    0.4890067909   -1.8572852254
     C     0.8209100744   -0.2977842664   -2.9649433114
     C     1.5112063277   -0.1831865460   -4.1905275083
     C     2.5042186177    0.7747068918   -4.2425326884
     C     2.8521712425    1.5848999786   -3.1358824904
     C     2.1265654258    1.4605958501   -1.9008389161
     O     2.3264650899    2.1961945527   -0.8405991175
     C     3.8617610223    2.5708126704   -3.3690523727
     N     4.4248001690    3.2872249153   -2.4438736414
     C     5.2645111808    4.3686958747   -2.7017413258
     C     6.1312068706    4.5067328815   -3.7693580253
     C     6.9266921323    5.6622114146   -3.9044429234
     C     6.8613932446    6.6831204493   -2.9837007890
     C     5.9936244783    6.5768143616   -1.8727301232
     C     5.2007857812    5.4099486036   -1.7214330399
     N     4.3583272628    5.2458115291   -0.6637731897
     C     4.2304162136    6.2177797064    0.2291039595
     C     4.9836872072    7.4126870151    0.1586579233
     C     5.8640563467    7.5779847558   -0.8782780853
     C     3.2634836646    6.0192004424    1.3034243966
     N     3.2971746803    6.6484701194    2.4546967420
     C     2.2287100572    6.1478952168    3.1641213941
     C     1.5339186778    5.1885352390    2.3929108187
     N     2.2326934952    5.1121367975    1.2097425665
     C     0.3939160735    4.5340478122    2.8573558915
     C    -0.0288479850    4.8656089368    4.1365040263
     C     0.6572087638    5.8121373818    4.9245474856
     C     1.7874909913    6.4608617587    4.4558025099
     C     1.1911779420   -1.0427273741   -5.4168266054
     C     0.7284615223   -0.1367752409   -6.5689684915
     C     2.4496675593   -1.8105062493   -5.8529790591
     C     0.0857400078   -2.0644378282   -5.1340463839
    Zn     3.9874527035    3.1192305937   -0.4135468945
     H     2.7338529200    1.3220618430    3.5856868573
     H     2.6769503143    1.8660629566    1.9035056604
     H     3.5901507429    2.7954887835    3.0932082773
     H     4.0991137148   -0.5390837368    3.9200137033
     H     7.7026057514   -1.1426302836    1.6606704751
     H     7.2960953200    2.0277987514   -0.2707372554
     H     7.7282291049    1.2692546526   -2.5208770902
     H     9.1555887458    2.0452340188   -4.3893739603
     H    11.6270149189    2.0599813743   -4.1631493300
     H    14.5887872914    0.8358001324   -0.5619445976
     H    13.6461779198    1.6194710328   -2.7513517324
     H    11.2546056890   -0.4718731124    2.3891037563
     H    11.6472191231   -1.5218241223    5.1391988610
     H    13.5234705644   -2.0133879177    6.6961899373
     H    15.8654464112   -1.6151418475    6.0377132059
     H    16.4268657517   -0.7087773543    3.7850795348
     H     4.1913302736   -2.7305673497    4.3378137584
     H     5.1690834171   -1.8036507620    5.4958293909
     H     5.4589864124   -3.5366191292    5.2722457085
     H     5.2502528914   -3.6021961355    2.1892482591
     H     6.4517939916   -4.4414810807    3.1931706665
     H     6.9796749015   -3.3676122591    1.8844110313
     H     7.6459406228   -1.4021274416    5.0430385428
     H     8.4114243062   -2.0742955725    3.5923566980
     H     7.8387190005   -3.1599098194    4.8699236306
     H    -0.4317264755   -0.4587392785   -0.6652814536
     H    -0.2084093003    1.2699749427   -0.3239574555
     H     0.9762544280    0.1122095546    0.2595177646
     H     0.0289968687   -1.0361295311   -2.8694104618
     H     3.0657624679    0.9234598874   -5.1634669306
     H     4.1313722984    2.7467274498   -4.4169176943
     H     6.2134729475    3.7097399649   -4.5030004532
     H     7.6040192707    5.7379034435   -4.7499118881
     H     7.4747017983    7.5731330776   -3.0923421385
     H     4.8444823012    8.1646487339    0.9268584279
     H     6.4622297315    8.4821541848   -0.9557736197
     H     1.8797006559    4.6907275201    0.3589955282
     H    -0.1312807306    3.7992782264    2.2544866612
     H    -0.9109034419    4.3798689817    4.5441770261
     H     0.2877567762    6.0329845653    5.9218746772
     H     2.3204640397    7.1906668901    5.0575818411
     H     1.4987420209    0.5936860394   -6.8400362710
     H    -0.1778741972    0.4151885235   -6.2945398874
     H     0.5066681011   -0.7368940458   -7.4600856869
     H     3.2709717614   -1.1309909708   -6.1048856132
     H     2.2343776655   -2.4183077160   -6.7403423364
     H     2.7964664864   -2.4778087844   -5.0559801078
     H    -0.8567421220   -1.5798768359   -4.8542299706
     H     0.3699350010   -2.7556128770   -4.3324241974
     H    -0.1016700488   -2.6581050538   -6.0357321666
