48
-1.5992670924545459e+03 frame 51   xyz file generated by TeraChem
     C     2.6529578498   -0.6361216467   -0.5421193938
     C     2.9826950193    0.8188267487   -0.8637993006
     N     3.4729308015    1.5924478391    0.2713265108
     C     2.6150129968    2.0768966327    1.2111191354
     C     3.0947570711    2.7853160197    2.3568184255
     C     2.2272365958    3.2993219861    3.2859273185
     C     0.8287096298    3.1451535937    3.1613392366
     C     0.3676009080    2.4369357391    2.0340952418
     C     1.2158927463    1.9102618316    1.0829020276
     O    -0.9628071820    2.2412807500    1.8485293797
     C    -1.9243812848    2.6939524675    2.7252465263
     O    -3.0717997413    2.4368032997    2.4421646981
     C    -1.4673801239    3.4408352815    3.9093926422
     C    -0.1107576136    3.6388078348    4.0854292905
     C    -2.5431542128    3.8732245113    4.7504600765
     C    -2.6607907443    4.5746529077    5.9291960606
     C    -1.6625808042    5.1703218807    6.8091289202
     N    -0.3723620937    5.1607112525    6.6489042112
     C     0.2720485230    5.8172185714    7.6704065481
     C    -0.5729314211    6.3578644252    8.6650880542
     S    -2.2242134260    6.0081693967    8.2674061231
     C    -0.0591118370    7.0508536066    9.7608183512
     C     1.3185668276    7.1973199647    9.8506005490
     C     2.1699092724    6.6650324326    8.8690055825
     C     1.6601112676    5.9767006851    7.7804901465
     C    -4.0128742235    4.7502436850    6.3719604998
     N    -5.1080171385    4.8972502847    6.7364996973
     C     4.9172091070    1.7259914013    0.4253358964
     C     5.5513510241    0.6961159047    1.3551610636
     H     2.2725926510   -1.1372568017   -1.4386995771
     H     1.8901562031   -0.7122150305    0.2388086013
     H     3.5421329745   -1.1754587876   -0.2018087785
     H     2.1078112662    1.3251153760   -1.2870812328
     H     3.7568310198    0.8587870509   -1.6353211919
     H     4.1576226692    2.9216675535    2.5096506379
     H     2.6167970479    3.8358431013    4.1472741849
     H     0.7706640568    1.3726751392    0.2558606935
     H     0.2276490211    4.1878507070    4.9604532220
     H    -3.5024778123    3.5617230763    4.3419175515
     H    -0.7154776764    7.4631530957   10.5209652810
     H     1.7427379906    7.7332917907   10.6948814276
     H     3.2438448425    6.7958786471    8.9664121876
     H     2.3100913426    5.5615854691    7.0159179987
     H     5.1475444465    2.7419617577    0.7633319488
     H     5.3543658900    1.6379197583   -0.5736520230
     H     5.1104887071    0.7345101785    2.3564016691
     H     6.6255885832    0.8897347217    1.4478283703
     H     5.4217530819   -0.3184285360    0.9661992777
