70
-1.4069403141207190e+03 frame 84   xyz file generated by TeraChem
     C     3.2909782885   -0.1582740879   -0.4609108571
     C     1.8017866291   -0.2046218623   -0.2575980580
     C     1.1481400401   -1.3725519415    0.0971668641
     C    -0.2445236876   -1.4097998669    0.2824417600
     C    -0.8827338524   -2.6575848837    0.6514699766
     N    -2.1481301966   -2.7460444649    0.8615081778
     C    -2.7307510683   -3.9939625371    1.1810373140
     C    -3.2637443966   -4.1885567961    2.4761117899
     C    -3.8449014893   -5.4242390854    2.7644282421
     C    -3.9275317335   -6.4361334707    1.8137117788
     C    -3.4329052940   -6.2115025962    0.5381894510
     C    -2.8349737685   -4.9953939159    0.1919668326
     C    -2.3580846670   -4.7941270804   -1.2375228388
     C    -1.1704645562   -5.7040734236   -1.5660952752
     C    -3.4949730214   -5.0022922863   -2.2433556920
     C    -3.2283606217   -3.1467886362    3.5852395827
     C    -1.8164773094   -2.8629954099    4.1102968941
     C    -3.9650298811   -1.8478775678    3.2419860799
     C    -1.0014333696   -0.2302139444    0.1042128830
     C    -0.3570575851    0.9689502981   -0.2578230386
     C     1.0210814379    0.9516939351   -0.4300310581
     C    -1.2027131562    2.2198465316   -0.4251199744
     C    -1.5908285624    2.8497453157    0.9068249581
     C    -2.7557980292    3.6211009546    0.9782614630
     C    -3.1314429306    4.2411273607    2.1652615181
     C    -2.3433164434    4.1012217249    3.3073529807
     C    -1.1821797016    3.3366755796    3.2479681346
     C    -0.8095650868    2.7153544994    2.0562177587
     C    -0.5749937069    3.2216649083   -1.3842045230
     C    -0.7406449475    3.0390480187   -2.7614790407
     C    -0.1637075215    3.9162533508   -3.6745698077
     C     0.5941751627    4.9957809229   -3.2230503291
     C     0.7660220812    5.1875466678   -1.8548861089
     C     0.1839628310    4.3082757151   -0.9426065232
     O    -2.3313827394   -0.2205813037    0.2617615722
     H     3.7438819397   -1.1408898630   -0.2969369156
     H     3.7678605772    0.5495803244    0.2276649727
     H     3.5456125611    0.1626363431   -1.4781354204
     H     1.7142298427   -2.2923278801    0.2362858842
     H    -0.2292027164   -3.5338217165    0.7556972491
     H    -4.2429646445   -5.5913050656    3.7630786337
     H    -4.3852944478   -7.3889778625    2.0659136757
     H    -3.5102456393   -6.9945076240   -0.2124672364
     H    -2.0233877686   -3.7581402705   -1.3472912192
     H    -1.4489642874   -6.7608394393   -1.4769314322
     H    -0.3269879506   -5.5242322734   -0.8901211483
     H    -0.8275500703   -5.5337630341   -2.5934182696
     H    -3.8582792712   -6.0362113419   -2.2335891863
     H    -3.1455305154   -4.7840173203   -3.2592123844
     H    -4.3432686887   -4.3447893219   -2.0253586798
     H    -3.7800399220   -3.6035486729    4.4179110446
     H    -1.1995792893   -2.3505383259    3.3661872854
     H    -1.3073062041   -3.7896410599    4.3976662495
     H    -1.8721044992   -2.2178476153    4.9950430340
     H    -3.4219399831   -1.2543329623    2.5025847767
     H    -4.0722006975   -1.2350590327    4.1447254057
     H    -4.9672241231   -2.0528455926    2.8502095944
     H     1.5161051767    1.8758548418   -0.7213784087
     H    -2.1416473690    1.8910902148   -0.8885201543
     H    -3.3744021997    3.7327591755    0.0899841843
     H    -4.0434560115    4.8316023062    2.2008338382
     H    -2.6362913659    4.5821416251    4.2369450383
     H    -0.5614251208    3.2179885388    4.1325938983
     H     0.0937349647    2.1121381329    2.0230833848
     H    -1.3308091401    2.1971637249   -3.1181796687
     H    -0.3100239164    3.7597512108   -4.7403302555
     H     1.0429787605    5.6848319926   -3.9336924872
     H     1.3514980318    6.0283302181   -1.4914732657
     H     0.3127839573    4.4752717425    0.1236346664
     H    -2.6024031245   -1.1575792779    0.4949163458
