49
-1.6913957332970790e+03 frame 48   xyz file generated by TeraChem
     C     5.5438637939    1.7168401745   -1.0628806600
     C     4.2288557507    0.9994789867   -0.7803468728
     N     3.2650231268    1.8263679693   -0.0657663647
     C     2.4010647525    2.6460250201   -0.7179755174
     C     1.3926640267    3.3720388720   -0.0118598163
     C     0.5170822718    4.1961149014   -0.6707822603
     C     0.5744240378    4.3616230345   -2.0704377967
     C     1.5727156388    3.6477401821   -2.7598142491
     C     2.4649886319    2.8131384687   -2.1203034151
     O     1.7102797775    3.7777859882   -4.1038519009
     C     0.9138891483    4.5857792021   -4.8844945284
     O     1.2435194895    4.7318016893   -6.0340465550
     C    -0.2285317905    5.2303224494   -4.2247649217
     C    -0.3140646677    5.1576143676   -2.8448781672
     C    -1.3571779871    5.8638695855   -2.1622576260
     N    -2.1899394273    6.4376078637   -1.5913627262
     C    -1.1471181874    6.0478072036   -4.9824862414
     C    -1.6177562059    5.8530913763   -6.2459539798
     C    -1.4688230132    4.6357931199   -7.0426176372
     N    -1.3104080674    3.4566121070   -6.5269216612
     C    -1.2147259073    2.5009764493   -7.5093488380
     C    -1.3218010359    2.9831847662   -8.8347518371
     S    -1.5427560227    4.7040668703   -8.8005972011
     C    -1.2534564887    2.1241149899   -9.9315385473
     C    -1.0725546215    0.7703270468   -9.6847860320
     C    -0.9642488673    0.2774390385   -8.3736062459
     C    -1.0357933350    1.1289535557   -7.2844582710
     C    -2.4075656680    6.8991145713   -6.8199298408
     N    -3.0407478076    7.7486907924   -7.2985149410
     C     3.3002248162    1.7332464274    1.3881805481
     C     2.3429624278    0.6878585121    1.9479763021
     H     6.2397849853    1.0426384407   -1.5731516781
     H     6.0136564594    2.0491558394   -0.1308761496
     H     5.3895502449    2.5955815875   -1.6970553476
     H     4.4099899719    0.1132584106   -0.1627652686
     H     3.7751230021    0.6331872608   -1.7064025136
     H     1.2905663737    3.2618255274    1.0604804288
     H    -0.2465027048    4.7246162194   -0.1064899183
     H     3.2174070410    2.3246306962   -2.7260897380
     H    -1.5186826503    6.9333931919   -4.4694636660
     H    -1.3384621083    2.5008336672  -10.9461308613
     H    -1.0147676850    0.0809069954  -10.5223602445
     H    -0.8230275459   -0.7877793299   -8.2146198298
     H    -0.9534070948    0.7622656540   -6.2658855618
     H     3.1031223356    2.7183797077    1.8216545041
     H     4.3298617395    1.4846890680    1.6667697274
     H     1.3040420176    0.9241912336    1.6962732009
     H     2.4301912537    0.6404430728    3.0386725884
     H     2.5714405520   -0.3047450279    1.5450532464
