49
-1.3684968488496365e+03 frame 57   xyz file generated by TeraChem
     C     1.7171135972    1.6724253648    0.3623303283
     C     2.5210467023    1.3192467650   -0.8830573266
     N     2.7274284554   -0.1142325222   -1.0493123652
     C     1.8502335299   -0.8994899246   -1.7240732290
     C     0.6044436120   -0.3801766079   -2.1945428748
     C    -0.2825690596   -1.1715271591   -2.8765967179
     C    -0.0021062937   -2.5280322853   -3.1443406640
     C     1.2279200011   -3.0337624442   -2.6806389067
     C     2.1348640158   -2.2590425451   -1.9888639777
     O     1.5811206739   -4.3204756498   -2.9280029724
     C     0.8022154802   -5.2094247366   -3.6339339495
     O     1.3020350034   -6.2669562861   -3.9223694274
     C    -0.5452228345   -4.7628419824   -4.0082018181
     C    -0.8703867877   -3.4305640101   -3.8159198398
     C    -2.1403919696   -2.9408775942   -4.2635629547
     N    -3.1618916745   -2.5255994204   -4.6276020724
     C    -1.4448505061   -5.6519258822   -4.7044643422
     C    -1.6261753544   -6.9894036301   -4.5226783524
     C    -1.1193329848   -7.7717918739   -3.4063485382
     N    -0.7870336923   -7.3472016226   -2.2281170311
     C    -0.4385274672   -8.4970873162   -1.5409738033
     C    -0.6090554151   -9.5967822355   -2.3897813983
     O    -1.0512768052   -9.1220994144   -3.5885584695
     C    -0.3604326032  -10.9070845246   -2.0202745442
     C     0.0859926248  -11.0836908228   -0.7130339751
     C     0.2664258416   -9.9976766457    0.1616522877
     C     0.0078593270   -8.6905918442   -0.2323482135
     C    -2.4768431019   -7.6791954645   -5.4430043709
     N    -3.1654291101   -8.2307037234   -6.1992852888
     C     3.9408356687   -0.6531295401   -0.4477257442
     C     5.1301692017   -0.6703486887   -1.4006629222
     H     1.6236767288    2.7595611452    0.4560966729
     H     2.2102298278    1.2944777393    1.2644148519
     H     0.7107427036    1.2432162867    0.3222171440
     H     3.5138243705    1.7788855848   -0.8304424384
     H     2.0505327192    1.7256876200   -1.7831551430
     H     0.3330231866    0.6487888729   -1.9952441234
     H    -1.2271166602   -0.7513755176   -3.2112368964
     H     3.0683255754   -2.7208521258   -1.6932992432
     H    -2.0643430051   -5.1886811318   -5.4703602771
     H    -0.5041592328  -11.7373271713   -2.7034411486
     H     0.2997685592  -12.0884861350   -0.3603018163
     H     0.6174102344  -10.1897865015    1.1714925394
     H     0.1464748766   -7.8503858102    0.4406489785
     H     3.7369721558   -1.6549841430   -0.0571340530
     H     4.1665619243   -0.0295561285    0.4236950169
     H     4.9369248234   -1.3101635443   -2.2675373069
     H     6.0199229652   -1.0488689758   -0.8864405519
     H     5.3518376766    0.3382493905   -1.7658317399
