63
-1.8208751336630576e+03 frame 56   xyz file generated by TeraChem
     C     3.3475261476    1.7319760851    2.5868261711
     C     2.5746492245    0.7267033758    1.7359450311
     N     2.6857050004    0.9253293157    0.3006183802
     C     1.9285784865    1.8788110756   -0.3409155725
     C     0.9788743757    2.6666069323    0.3555808687
     C     0.1882681564    3.5920074897   -0.2988386029
     C     0.2854809265    3.8122400945   -1.6838741565
     C     1.2375915327    3.0409810190   -2.3690464688
     C     2.0401141424    2.1100522682   -1.7310313426
     C    -0.5202516344    4.7775315536   -2.4141137420
     C    -1.4637872368    5.5985804990   -1.9053921691
     C    -2.2632477232    6.5641271977   -2.6434710669
     C    -2.1573710835    6.7365940565   -4.0639003682
     C    -2.9152222765    7.6513650851   -4.7236576257
     N    -3.7999226894    8.4298037439   -4.0264331919
     C    -3.9492328929    8.3114674627   -2.6431078448
     C    -3.1670072219    7.3600424911   -1.9619545616
     N    -4.8556528646    9.1676173626   -2.1857832632
     C    -5.2961203856    9.8494735414   -3.2830610990
     C    -4.6641409204    9.4126751952   -4.4344331922
     C    -6.3475854628   10.8784123864   -3.2128221310
     C    -7.3591056535   10.8591324400   -4.1819692893
     C    -8.4157274662   11.7616604035   -4.1488481395
     C    -8.4839929519   12.7003363246   -3.1234437892
     C    -7.4813175887   12.7387322155   -2.1607725193
     C    -6.3987470127   11.8508687182   -2.1901774173
     C    -5.3328799759   12.0217776277   -1.1720447369
     C    -5.6632506597   12.1386934140    0.1822453996
     C    -4.6870331560   12.3641865045    1.1477381831
     C    -3.3609173683   12.4830443585    0.7496905393
     C    -3.0006215645   12.3789415655   -0.5907656987
     C    -3.9879369002   12.1481001760   -1.5402333573
    Cl    -2.1262575448   12.7705371322    1.9493603460
     C     3.7295943085    0.2025050085   -0.4069079430
     C     5.0157539759    0.9936809638   -0.6320100311
     H     3.1691968315    1.5421998442    3.6513697159
     H     3.0392976765    2.7593824837    2.3678983570
     H     4.4242730415    1.6564460976    2.4045687421
     H     1.5142360164    0.7327990156    2.0138708457
     H     2.9330566100   -0.2856097538    1.9504509072
     H     0.8588119252    2.5603987239    1.4274753161
     H    -0.5220058487    4.1635090097    0.2930318975
     H     1.3552396047    3.1804583735   -3.4421576450
     H     2.7590306657    1.5577477845   -2.3252577529
     H    -0.3111867805    4.8170139570   -3.4831594119
     H    -1.6725673980    5.5676439899   -0.8369885355
     H    -1.4682881891    6.1340541775   -4.6443099647
     H    -2.8700444890    7.8138066198   -5.7944004172
     H    -3.2918128567    7.2776827825   -0.8868985700
     H    -4.7348894753    9.7230866297   -5.4663127989
     H    -7.3243692585   10.0941456948   -4.9533137656
     H    -9.1894628168   11.7198729976   -4.9106267633
     H    -9.3075009109   13.4077336193   -3.0769081562
     H    -7.5123522036   13.4936027537   -1.3792797905
     H    -6.7000589195   12.0331218297    0.4902256272
     H    -4.9525686282   12.4429277396    2.1971178450
     H    -1.9613043701   12.4821747206   -0.8859140787
     H    -3.7102311339   12.0737481637   -2.5876452047
     H     3.3328082666   -0.1523743126   -1.3661092231
     H     3.9488509284   -0.6967785466    0.1773959831
     H     4.8261414152    1.9057492639   -1.2070390741
     H     5.7410277834    0.3869840319   -1.1860184537
     H     5.4697664451    1.2833193691    0.3208105603
