57
-1.2450587137802936e+03 frame 58   xyz file generated by TeraChem
     C     1.3342574299    0.1751406550   -0.8893683095
     C     2.4333931018   -0.2119033149    0.0952355347
     N     2.5179539180    0.6691618957    1.2468160095
     C     1.7568700623    0.4666349405    2.3722733286
     C     0.7711015092   -0.5492886615    2.4286785613
     C     0.0039218321   -0.7482836916    3.5607262010
     C     0.1534709125    0.0432518916    4.7133450305
     C     1.1344491630    1.0462043174    4.6549242574
     C     1.9163633690    1.2582965166    3.5322178863
     C    -0.6334192447   -0.1207625155    5.9248150643
     C    -1.6333443661   -1.0038651120    6.1342783373
     C    -2.4160152588   -1.1573513324    7.3507744546
     C    -2.1769844503   -0.3826620380    8.5332208703
     C    -2.9303841135   -0.5508271610    9.6523630017
     N    -3.9399689532   -1.4748694078    9.6595782273
     C    -4.2237256383   -2.2599635314    8.5405879449
     C    -3.4411684566   -2.0873503256    7.3842772745
     N    -5.2417638725   -3.0775185310    8.7812360227
     C    -5.6235597536   -2.8227352678   10.0685638173
     C    -4.8336850394   -1.8351733257   10.6343370665
     C    -6.7385320452   -3.5421827390   10.6874399763
     C    -7.4887318842   -4.4509644650    9.9365167696
     C    -8.5579934025   -5.1474441945   10.4915175915
     C    -8.8974501372   -4.9419388071   11.8309647081
     C    -8.1536957776   -4.0360430807   12.5982084014
     C    -7.0931230601   -3.3503585855   12.0323449801
     O    -9.9179839722   -5.5660317955   12.4712654372
     C   -10.7121721572   -6.4612983288   11.7205866121
     C     3.4318567740    1.7917614240    1.1342194665
     C     4.8278216630    1.4982533617    1.6747865965
     H     1.3293454029   -0.5045926486   -1.7488749471
     H     1.4894803881    1.1937693227   -1.2618980546
     H     0.3482127061    0.1370596229   -0.4152303711
     H     3.4069839358   -0.1856843979   -0.4074649090
     H     2.3016732060   -1.2448557909    0.4352161026
     H     0.5911385906   -1.1823363343    1.5670412295
     H    -0.7386416966   -1.5417349222    3.5410149491
     H     1.2928074650    1.6785881444    5.5266172012
     H     2.6704084846    2.0367361867    3.5653752902
     H    -0.3623418714    0.5642625480    6.7283709245
     H    -1.9172888192   -1.6831937922    5.3315717288
     H    -1.3829549056    0.3546069075    8.5607586840
     H    -2.7847980587    0.0102072201   10.5683924558
     H    -3.6697873694   -2.7036712478    6.5204947993
     H    -4.8293589447   -1.3643191261   11.6057011404
     H    -7.2235815794   -4.6088155593    8.8955699607
     H    -9.1158635653   -5.8433235551    9.8742920354
     H    -8.4272178402   -3.8875085460   13.6387616729
     H    -6.5293960178   -2.6557750577   12.6499295811
     H   -11.4715074035   -6.8389390438   12.4072408580
     H   -10.1184531434   -7.3014421218   11.3390864745
     H   -11.2017476316   -5.9543903243   10.8795788716
     H     3.0000509285    2.6653077964    1.6348520352
     H     3.4942169162    2.0573323619    0.0724464390
     H     4.7941987957    1.2487590330    2.7403112095
     H     5.4822382503    2.3675602474    1.5449175307
     H     5.2773993705    0.6514838800    1.1444960625
