54
-1.0730747802386493e+03 frame 112   xyz file generated by TeraChem
     C     2.9380129206   -0.8299150973    0.3886657024
     C     3.5847787933   -0.6450055635    1.7583465467
     N     3.6362391743    0.7376900291    2.1972954854
     C     2.5926193792    1.3227752183    2.8719815833
     C     1.3641762603    0.6454452705    3.0712629779
     C     0.3159644690    1.2371119976    3.7502811765
     C     0.4056383383    2.5386960255    4.2750997072
     C     1.6242058906    3.2071302108    4.0735246610
     C     2.6881193579    2.6293139576    3.4021107952
     C    -0.6682539026    3.2084576157    4.9894809951
     C    -1.8800129153    2.7030949296    5.3068080247
     C    -2.9512393249    3.3892175899    6.0147285231
     C    -2.8854879902    4.7356167530    6.4286638975
     C    -3.9352467687    5.3366016755    7.0968583625
     C    -5.1179183892    4.6302653199    7.3922129165
     C    -5.1831596251    3.2888230382    6.9838007914
     C    -4.1309652129    2.6862875749    6.3118853086
     C    -6.2595229120    5.2138841005    8.0840491894
     C    -6.3960016584    6.4942966511    8.4837487444
     C    -7.5471735702    7.0751025528    9.1689701777
     C    -8.6879973522    6.3405467275    9.5368903794
     C    -9.7610381094    6.9435847227   10.1787868065
     C    -9.6981574703    8.3035698680   10.4621300518
     C    -8.5908733605    9.0666653913   10.1220237058
     C    -7.5261631917    8.4443263627    9.4797359730
    Br   -11.2131487642    9.1604867329   11.3480194775
     C     4.8307563742    1.4833815588    1.8436858923
     C     5.9122071725    1.4545839875    2.9191177244
     H     2.9437145888   -1.8869842825    0.1000713376
     H     3.4822738817   -0.2654747221   -0.3766187667
     H     1.9007596572   -0.4798497723    0.3910316648
     H     4.6147010284   -1.0200968646    1.7336505501
     H     3.0676561741   -1.2466782467    2.5135867535
     H     1.2196121674   -0.3515625260    2.6705909136
     H    -0.6048475002    0.6707953095    3.8631155231
     H     1.7426604161    4.2148492913    4.4675804832
     H     3.6087238662    3.1938528419    3.3043382217
     H    -0.4341885752    4.2301576649    5.2899073031
     H    -2.1135498255    1.6770715170    5.0232760293
     H    -1.9953763369    5.3225540057    6.2198974666
     H    -3.8361633039    6.3762141834    7.3969598697
     H    -6.0821299364    2.7141911515    7.1971170736
     H    -4.2154136721    1.6452419034    6.0076314740
     H    -7.0728750002    4.5138555296    8.2737084697
     H    -5.5893852755    7.1984678707    8.2840780998
     H    -8.7470981021    5.2777539889    9.3217541751
     H   -10.6332327464    6.3604701022   10.4552550123
     H    -8.5562190886   10.1265470644   10.3504065636
     H    -6.6555090189    9.0371623439    9.2092653835
     H     4.5560998781    2.5158108431    1.6007968633
     H     5.2219001732    1.0522928243    0.9147321111
     H     5.5531770114    1.8966142396    3.8542065795
     H     6.7953641102    2.0143498979    2.5910145713
     H     6.2225031311    0.4252019530    3.1305226163
