48
-2.1484457831467262e+03 frame 244   xyz file generated by TeraChem
     C    -0.0947470189   -0.9955866149   -0.4195041893
     C    -1.0946066663   -2.0111213267   -0.4189718655
     C    -1.0774526188   -2.6481120919   -1.6929281128
     C    -0.0651167215   -2.0279567868   -2.4816827116
     C     0.5414477026   -1.0065887928   -1.6936101798
    Cl    -0.9646104579    5.7447469731    5.7403259994
     C    -1.7174972243    4.6257729229    4.6403900339
     C    -2.8371111100    3.8918289560    5.0542176239
     C    -3.3833686208    3.0342069609    4.1367175131
     C    -2.7655074804    2.9609201295    2.8641739964
     N    -1.6886912880    3.6978834938    2.5490042125
     N    -1.1784444800    4.5297099325    3.4463512891
     N    -3.2560902757    2.1184026839    1.9078774917
     N    -2.7064489947    2.0656240422    0.6506801373
     C    -3.2167338411    1.0592923659    0.0288169868
     C    -4.1885780894    0.2635292373    0.8623001583
     C    -4.3664506533    1.1784473379    2.0906206586
     C    -5.7169731748    1.8709244822    2.1133999827
     C    -5.8805238934    3.1606617244    1.6023672534
     C    -7.1250446406    3.7827690386    1.5937897922
     C    -8.2378702977    3.1191348498    2.1025360550
     C    -8.1047198932    1.8313219446    2.6129207091
     C    -6.8536146524    1.2235788289    2.6086603884
    Cl    -6.7272732323   -0.4047698710    3.2362041253
     C    -2.8581790928    0.7359494384   -1.3382986839
     C    -3.4578870241   -0.2916314159   -2.1392562152
     C    -2.8102620435   -0.2974824470   -3.4037084816
     C    -1.8078872639    0.7155641757   -3.3937385777
     C    -1.8263093285    1.3485790677   -2.1225913244
    Fe    -1.4607930365   -0.6482238640   -1.9027614525
     H     0.1070690758   -0.3009953177    0.3862786641
     H    -1.7813861406   -2.2263355281    0.3899870330
     H    -1.7476813838   -3.4333046730   -2.0197787084
     H     0.1704212466   -2.2607580321   -3.5127366667
     H     1.3146529337   -0.3236312472   -2.0225946407
     H    -3.2499434931    4.0051233093    6.0506502244
     H    -4.2588038913    2.4435905566    4.3817906535
     H    -3.7523042247   -0.7054558553    1.1324768611
     H    -5.1340720315    0.0727043566    0.3478119320
     H    -4.2212683953    0.6182950998    3.0189526032
     H    -5.0104484830    3.6791201105    1.2091545610
     H    -7.2224632237    4.7862555977    1.1900255852
     H    -9.2130272527    3.5974863502    2.1046040711
     H    -8.9614862103    1.2969297388    3.0109400162
     H    -4.2453007316   -0.9643325024   -1.8231902875
     H    -3.0117860924   -0.9845728765   -4.2154994656
     H    -1.1128328225    0.9282793830   -4.1959767953
     H    -1.1630552144    2.1331501631   -1.7830903168
