31
-9.3282173472578097e+02 frame 38   xyz file generated by TeraChem
     C     5.7609422123    0.0072164759   -3.3205028789
     C     5.1502907524    0.7909382917   -2.1908352398
     O     4.5147555674    1.8097498178   -2.3680657741
     C     5.3719378848    0.2271678926   -0.7929518682
     C     4.9171516427    1.1826611645    0.2872916674
     O     3.9106176890    0.9902165002    0.9484701683
     C     5.7376487798    2.3693338497    0.5215413521
     C     5.5912148599    3.4252295600    1.3859722039
     C     6.6894230491    4.2837640750    1.1611613541
     C     7.4341435456    3.6892357192    0.1713293974
     O     6.8668861102    2.5293187205   -0.2204500329
     C     8.6566087322    4.0830033748   -0.4755456121
     N     9.3507986039    5.1535939768   -0.2426282914
     C    10.4170427958    5.0544819211   -1.1231893525
     C    10.2836851900    3.8722787946   -1.8610325531
     O     9.1455329157    3.2491057372   -1.4372047473
     C    11.1753044007    3.4608167480   -2.8351177563
     C    12.2552980418    4.3130717404   -3.0552063915
     C    12.4155787252    5.5056326891   -2.3294185310
     C    11.5052518057    5.8977260254   -1.3547298236
     H     5.3958174529    0.3845484191   -4.2775816437
     H     5.5385501540   -1.0611618737   -3.2240936937
     H     6.8523908640    0.1140245226   -3.2821022857
     H     6.4302090853   -0.0364389576   -0.6735475074
     H     4.7887983140   -0.6963320537   -0.6965721616
     H     4.7800955205    3.5522524789    2.0889504608
     H     6.9184879938    5.2193446511    1.6513918385
     H    11.0409448467    2.5382777404   -3.3898250056
     H    12.9916982408    4.0476155618   -3.8081102754
     H    13.2750064311    6.1360406493   -2.5386666860
     H    11.6276486218    6.8191684794   -0.7942895519
