76
-1.8014022164481203e+03 frame 60   xyz file generated by TeraChem
     C     3.0370118392   -0.3713729367    0.6671024802
     C     2.6448164922   -0.3730650422   -0.6048631466
     C     3.5438938258   -0.3070334729   -1.8067715937
     N     4.9559156766   -0.2561387093   -1.4966063574
     C     5.5734149309    0.9454740133   -1.1562372599
     C     4.9856779189    2.1322364570   -0.7266682545
     C     5.8248744563    3.2152199067   -0.4452635672
     C     7.2059314331    3.1193844734   -0.5912899992
     C     7.7817555209    1.9184659010   -1.0271070042
     C     6.9634511287    0.8418914358   -1.3158961296
     C     7.2991561869   -0.5661333020   -1.7562031560
     C     5.9056622724   -1.0113469314   -2.3331423094
     C     5.7175127272   -0.6402968913   -3.7707102012
     C     5.3327492832   -1.5164695618   -4.7043978144
     C     5.1252828026   -2.9160501747   -4.3794021062
     C     5.3246370479   -3.2834929581   -3.0546317149
     O     5.7082674473   -2.4019423112   -2.1036139193
     C     5.1599404198   -4.6352140362   -2.6307791544
     C     4.8058658775   -5.5822414016   -3.5735570424
     C     4.5951460173   -5.2541535841   -4.9269795551
     C     4.7509180635   -3.8987775914   -5.3468250571
     C     4.5301586658   -3.5978575928   -6.7149402335
     C     4.1787815816   -4.5825131324   -7.6087537344
     C     4.0258699457   -5.9221715403   -7.1891308051
     C     4.2301323697   -6.2473230880   -5.8714926957
     C     5.3718748860   -5.1052619492   -1.2652300041
     N     5.4945632155   -6.3498787490   -0.9019710642
     C     5.6237149848   -6.3240549041    0.4716952767
     C     5.5979092699   -5.0131476756    0.8890585657
     O     5.4203903041   -4.2451427961   -0.2294916451
     C     5.7452058514   -4.2884090754    2.1443608445
     C     6.5456876784   -4.7835215260    3.1840140355
     C     6.6869945753   -4.0633053801    4.3644715695
     C     6.0449788021   -2.8358738945    4.5230419632
     C     5.2584153921   -2.3314331714    3.4891108804
     C     5.1065495700   -3.0500293407    2.3087925316
     C     5.7255906199   -7.5800928543    1.2250238540
     C     6.3383760640   -8.6891955881    0.6271713274
     C     6.4252915983   -9.9002036263    1.3054940597
     C     5.8955966622  -10.0253441584    2.5884623236
     C     5.2706235233   -8.9315645839    3.1848717645
     C     5.1812462977   -7.7194644148    2.5086017418
     C     7.6597829600   -1.4086807777   -0.5230912360
     C     8.4255481221   -0.6579955145   -2.7806789856
     H     2.3179966441   -0.4185025482    1.4803551002
     H     4.0901452921   -0.3187831654    0.9304218778
     H     1.5820256518   -0.4132830797   -0.8455978163
     H     3.2436302650    0.5545823737   -2.4287188191
     H     3.3647852405   -1.1949718295   -2.4255388190
     H     3.9106457673    2.2124210628   -0.5996021478
     H     5.3828638776    4.1499637709   -0.1092895527
     H     7.8376370533    3.9753576701   -0.3711793066
     H     8.8602214302    1.8404480241   -1.1467856796
     H     5.8684620347    0.4100655058   -4.0048436145
     H     5.1743446582   -1.1771276792   -5.7227177282
     H     4.6877040848   -6.6123797607   -3.2506196192
     H     4.6386848358   -2.5794559219   -7.0726292749
     H     4.0164917953   -4.3254072318   -8.6521619921
     H     3.7479917264   -6.6875181550   -7.9081896592
     H     4.1172824148   -7.2726945970   -5.5275269994
     H     7.0686025937   -5.7269867195    3.0597756873
     H     7.3133400057   -4.4578191737    5.1600406035
     H     6.1615751504   -2.2740929509    5.4457731881
     H     4.7557856318   -1.3743255707    3.6013715331
     H     4.4886566492   -2.6577426642    1.5065058869
     H     6.7439073334   -8.5892786447   -0.3752520376
     H     6.9084920183  -10.7497352475    0.8299684179
     H     5.9630415956  -10.9719495070    3.1179494562
     H     4.8390226988   -9.0244982233    4.1779815191
     H     4.6719941120   -6.8794140855    2.9721417626
     H     6.8435352961   -1.4298500782    0.2042830688
     H     8.5422214454   -0.9733402626   -0.0419631507
     H     7.8922742404   -2.4398056684   -0.8057206731
     H     8.2548469556   -0.0110577288   -3.6461899774
     H     8.5408945683   -1.6882210282   -3.1365589716
     H     9.3724523302   -0.3596020550   -2.3171270932
