84
-2.0301999217685179e+03 frame 123   xyz file generated by TeraChem
     C     1.5657253519    1.3548283455   -1.7198690082
     C     2.8558428328    1.4241912442   -1.3984894048
     C     3.5852076626    2.6985362225   -1.0826774338
     N     4.3649104199    2.5966642845    0.1376284764
     C     3.7675341143    2.7907928224    1.3871789660
     C     2.4208744815    2.7177933322    1.7356804995
     C     2.0654588837    2.9517802369    3.0631159596
     C     3.0263148484    3.2587174333    4.0297467922
     C     4.3802129961    3.3302031773    3.6717218674
     C     4.7311519831    3.1016641001    2.3498399141
     C     6.0994744973    3.0477024527    1.7067473456
     C     5.7041013482    3.2013454660    0.1908966036
     C     5.6540520292    4.6273571714   -0.2607804849
     C     6.2407288841    5.0549712938   -1.3851147158
     C     7.0037015837    4.1502196585   -2.2248429912
     C     7.1097772273    2.8367680251   -1.7844966074
     O     6.5900633864    2.4216760229   -0.6057574505
     C     7.8156594329    1.8619919594   -2.5440020068
     C     8.4317864504    2.2569507665   -3.7187666173
     C     8.3674228404    3.5813418540   -4.1930540923
     C     7.6318244895    4.5462467120   -3.4436750032
     C     7.5722101108    5.8686656854   -3.9573273117
     C     8.2039121171    6.2068719617   -5.1242177302
     C     8.9377515578    5.2432055934   -5.8621563014
     C     9.0149188895    3.9485973303   -5.4032916140
     O     9.5132498042    5.7135786847   -6.9946032476
     C    10.2737721599    4.8048315535   -7.7644093576
     C     7.9400849368    0.4584822336   -2.1643509155
     N     8.7340554314   -0.4138807676   -2.7161833031
     C     8.4649395845   -1.6122795084   -2.0867022547
     C     7.5014987004   -1.3960629121   -1.1269046223
     O     7.1652593033   -0.0718784950   -1.1983627724
     C     6.8267935955   -2.1646007517   -0.0891306599
     C     7.4221198751   -3.2949388169    0.4909550199
     C     6.7667728340   -3.9965610694    1.4960280998
     C     5.5160744876   -3.5792960257    1.9492047031
     C     4.9244270853   -2.4486617322    1.3895674272
     C     5.5707660060   -1.7463866987    0.3789921012
     C     9.1578406576   -2.8326863669   -2.5185647826
     C    10.4703373475   -2.7365389379   -2.9993242961
     C    11.1443530473   -3.8678368856   -3.4461639523
     C    10.5161191888   -5.1117774139   -3.4283455396
     C     9.2049968145   -5.2143446386   -2.9667549757
     C     8.5282192669   -4.0842912993   -2.5193787391
     C     6.7132019890    1.6627195489    1.9653791621
     C     7.0739111672    4.1227266593    2.1777776203
     O     2.5527298905    3.4768518708    5.2905309991
     C     3.4842010711    3.8531410960    6.2792828110
     H     1.0910829798    0.4119331672   -1.9779112987
     H     0.9364063814    2.2433209333   -1.7437270156
     H     3.4664395192    0.5213200972   -1.3785731471
     H     2.8740577395    3.5393810362   -1.0454638331
     H     4.2887795879    2.9115080821   -1.8972208200
     H     1.6594053474    2.4753303523    1.0015486196
     H     1.0241144650    2.9058267973    3.3688049001
     H     5.1451595579    3.5676130676    4.4044094632
     H     5.0608807760    5.2971870923    0.3558544710
     H     6.1360033690    6.0944662164   -1.6787477628
     H     8.9728130013    1.5094717750   -4.2914592208
     H     7.0218228706    6.6377104180   -3.4255863168
     H     8.1577637547    7.2204011441   -5.5119769285
     H     9.5633830677    3.1840360630   -5.9436336447
     H    10.6582258592    5.3742868675   -8.6117478586
     H     9.6536457711    3.9772632436   -8.1313411349
     H    11.1123963991    4.3979723504   -7.1855747465
     H     8.4071861760   -3.6136555812    0.1647977441
     H     7.2435492033   -4.8677312761    1.9372267539
     H     5.0089177290   -4.1283651512    2.7377929417
     H     3.9531911029   -2.1095459484    1.7395497777
     H     5.1072405873   -0.8632707285   -0.0505862553
     H    10.9524661473   -1.7637175429   -3.0184435493
     H    12.1642647136   -3.7774227878   -3.8106438376
     H    11.0426934232   -5.9955984548   -3.7784276348
     H     8.7010715904   -6.1772564140   -2.9654918118
     H     7.4990376883   -4.1688320395   -2.1824253912
     H     6.0633133528    0.8614042440    1.6040996177
     H     6.8544905327    1.5330390756    3.0438386708
     H     7.6841492760    1.5659660732    1.4710050382
     H     6.6567040589    5.1310312944    2.1010556835
     H     7.9975413226    4.0860214384    1.5887569680
     H     7.3423956589    3.9470748015    3.2255095501
     H     2.9103152166    4.0012267391    7.1959489387
     H     3.9959677720    4.7888406453    6.0176923038
     H     4.2350959151    3.0698067558    6.4480513165
