56
-1.2239978947672130e+03 frame 36   xyz file generated by TeraChem
     C    -1.6786697505   -0.1706050466   -1.1670720237
     C    -1.0756953629   -1.0071480279   -0.0420125357
     C     0.3354377520   -0.5370051605    0.2872936691
     N     1.1788477690   -0.5616432246   -0.9066681498
     C     0.6576041078    0.2971465963   -1.9640383450
     C    -0.7395308051   -0.1533105163   -2.3702822897
     N     2.4952274209   -0.1984758180   -0.6125006197
     C     3.3855191991   -1.1939583917   -0.2399642637
     C     3.1678372432   -2.5434032479   -0.5660096281
     C     4.1099645970   -3.5037192242   -0.2412252608
     C     5.3081044611   -3.1760143027    0.4187178857
     C     5.5047913419   -1.8227310666    0.7439228032
     C     4.5707484265   -0.8500964011    0.4292793516
     C     6.3318038369   -4.1470266668    0.7777439783
     C     6.3281750801   -5.4703358865    0.5120319350
     C     7.3602883474   -6.4296971736    0.8754916153
     C     8.5421079312   -6.0623883666    1.5998584911
     C     9.4879250308   -6.9830710409    1.9232199446
     N     9.3172259065   -8.2901004008    1.5531557948
     C     8.1898451995   -8.7113886676    0.8454974643
     C     7.2107305742   -7.7567169597    0.5128228251
     N     8.2455547040  -10.0142044986    0.5980817749
     C     9.4189819842  -10.4441519353    1.1498854881
     C    10.1006913938   -9.3966100395    1.7471092603
     C     9.8283507208  -11.8498063842    1.0704938367
     C    11.0153782092  -12.3040200066    1.6614008014
     C    11.3853069472  -13.6410852145    1.5717661165
     C    10.5763673635  -14.5496692815    0.8905025943
     C     9.3937692184  -14.1074984002    0.3002239830
     C     9.0221336487  -12.7705832085    0.3888282755
     H    -1.8328161387    0.8587212972   -0.8119142725
     H    -2.6633848349   -0.5596701257   -1.4515703105
     H    -1.0335641021   -2.0613047524   -0.3459800476
     H    -1.6941172872   -0.9543047726    0.8617666164
     H     0.7979239744   -1.1903708613    1.0351175257
     H     0.3011152289    0.4868602671    0.7123799722
     H     1.3522746154    0.2415949527   -2.8075478508
     H     0.6242086531    1.3537171853   -1.6298034400
     H    -0.6726000539   -1.1608367133   -2.8013707858
     H    -1.1198327525    0.5122540261   -3.1540483134
     H     2.5832067012    0.6659869864   -0.0768189889
     H     2.2494985466   -2.8143498108   -1.0754423030
     H     3.9039817170   -4.5371575523   -0.5072958190
     H     6.4165147582   -1.5314195355    1.2617662950
     H     4.7549162559    0.1884889967    0.6964485937
     H     7.1801739665   -3.7215792504    1.3135541979
     H     5.4875941672   -5.9008349422   -0.0302245662
     H     8.7062688981   -5.0362243684    1.9072806168
     H    10.3954092130   -6.7514765912    2.4689227792
     H     6.3384605385   -8.0955805631   -0.0371658902
     H    11.0410015420   -9.3362773269    2.2736860181
     H    11.6564686822  -11.6085892802    2.1971379960
     H    12.3092236085  -13.9758181655    2.0363345026
     H    10.8664354434  -15.5947105603    0.8209525488
     H     8.7563304380  -14.8082950200   -0.2328727037
     H     8.1029001728  -12.4173449580   -0.0680579858
