39
-9.3087561894694954e+02 frame 57   xyz file generated by TeraChem
    Br    -1.3663141805   -1.4265377229    1.8668078696
     C     0.5171251696   -1.1255683118    1.4448860813
     C     1.0080698800   -1.5645614107    0.2220034056
     C     2.3472682296   -1.3452362699   -0.0773981003
     C     3.1942922338   -0.6954549641    0.8294416422
     C     2.6640741528   -0.2666012997    2.0523800271
     C     1.3264176742   -0.4776441905    2.3681507547
     C     4.6084470951   -0.4613453240    0.5271458558
     C     5.3083060907   -0.8560277571   -0.6015879635
     N     6.5879873213   -0.4102389643   -0.4129037138
     C     6.6135242611    0.2380719082    0.8234403339
     N     5.4175077394    0.2097488523    1.3977878885
     C     7.8282382475    0.7972271496    1.2627063760
     C     8.9708221580    0.7026596304    0.4892676699
     C     8.8787218552    0.0227988471   -0.7691618629
     C     7.7066001929   -0.5154995986   -1.1959143438
     C    10.2103580278    1.2909623292    0.9777230779
     C    11.4091959879    1.2561923153    0.3633208427
     C    12.6573201134    1.8435751159    0.8453939904
     C    12.7541849649    2.6069397553    2.0218259065
     C    13.9718457552    3.1365581871    2.4271050531
     C    15.1250091884    2.9208570765    1.6705975574
     C    15.0465928495    2.1689023119    0.5012645249
     C    13.8267206887    1.6391469840    0.0950492492
     H     0.3597969250   -2.0685850445   -0.4867696960
     H     2.7295844636   -1.6877840607   -1.0349411629
     H     3.3169746951    0.2363515331    2.7586599851
     H     0.9247120211   -0.1438164710    3.3189968527
     H     5.0247001763   -1.3982985244   -1.4909071728
     H     7.8369661022    1.2997664015    2.2247666950
     H     9.7457476354   -0.0738648205   -1.4120482734
     H     7.5875168496   -1.0367849050   -2.1385923236
     H    10.1187955442    1.7945036390    1.9387970261
     H    11.4992576401    0.7396666072   -0.5914947486
     H    11.8696493035    2.7923011434    2.6246878624
     H    14.0235093344    3.7249099474    3.3394937778
     H    16.0754565059    3.3381866015    1.9917720833
     H    15.9368090370    1.9946197099   -0.0973591933
     H    13.7707085427    1.0520501167   -0.8191283664
