87
-2.4475085767779046e+03 frame 136   xyz file generated by TeraChem
    Br     5.5695174657   -1.0642693597   -6.4940986713
     C     5.6731992132   -1.4480172774   -4.5746560271
     C     4.8204577837   -0.7757075085   -3.6978053381
     C     4.8902735615   -1.0525167402   -2.3461363237
     C     5.7956911950   -2.0058254568   -1.8039172603
     C     6.6489734658   -2.6865341033   -2.7355348945
     C     6.5747190805   -2.3781418535   -4.1087872923
     C     7.6193467562   -3.7051832965   -2.3769296538
     N     7.7484044762   -4.2713323285   -1.2301438516
     C     8.7908579889   -5.1658917424   -1.0342318974
     C     8.5312293882   -6.3944502286   -0.4439079401
     C     9.5542263603   -7.3243077173   -0.1895950256
     C    10.8662135661   -7.0309514233   -0.4880970667
     C    11.1894298436   -5.7783696021   -1.0533831714
     C    10.1581543471   -4.8294799611   -1.3356875596
     N    10.4317012006   -3.6116632962   -1.8559133663
     C    11.6835859738   -3.2979596113   -2.1302829334
     C    12.7773493883   -4.1725896484   -1.9122353336
     C    12.5200952354   -5.4021716217   -1.3709982166
     C    11.9028415273   -1.9628028864   -2.6833732537
     N    13.0655949361   -1.4449327458   -3.0205895018
     C    12.7612035907   -0.1854501507   -3.4882896726
     C    11.3640388201    0.0404209016   -3.4220950655
     N    10.8518255380   -1.1192338741   -2.9023833230
     C    10.7770608988    1.2362885332   -3.8348153066
     C    11.6341507927    2.2141274357   -4.3205574527
     C    13.0260250817    2.0086940311   -4.3931485066
     C    13.6043594399    0.8173708523   -3.9823173438
     O     5.8680812902   -2.2242588778   -0.5302136839
    Br    -1.3635049698    2.3467014916   -1.0686988701
     C     0.2088963049    1.4068529269   -0.3854000830
     C     1.1652521131    2.1133819024    0.3595729321
     C     2.2726037902    1.4530958243    0.8394838529
     C     2.5068141677    0.0679171531    0.5989494113
     C     1.5061469220   -0.6287081261   -0.1726041165
     C     0.3647156372    0.0700900254   -0.6385267557
     C     1.5329105784   -2.0292053889   -0.4678767144
     N     2.5132936343   -2.8385532484   -0.2067054433
     C     2.4183956250   -4.2100456647   -0.4534756031
     C     1.5854825186   -4.8669078581   -1.3398305957
     C     1.6066002935   -6.2765472474   -1.4382819813
     C     2.4488152171   -7.0513513654   -0.6714205285
     C     3.3402269263   -6.4239471091    0.2283945301
     C     3.3263587245   -5.0077414346    0.3140750220
     N     4.1690408446   -4.3502671080    1.1207209228
     C     5.0416978939   -4.9835340590    1.8789672592
     C     5.1139495234   -6.3937004972    1.8915260041
     C     4.2684154758   -7.0964749189    1.0613223211
     C     5.8734453278   -4.0455937444    2.6370151583
     N     5.7034971963   -2.7389712514    2.5092848167
     C     6.6349618790   -2.1536763164    3.3334033741
     C     7.3830980711   -3.1611272195    3.9797662051
     N     6.8652689744   -4.3479890067    3.5095119076
     C     8.4035193245   -2.8701527816    4.8839270719
     C     8.6519401647   -1.5264387604    5.1196147295
     C     7.9130577792   -0.5099921497    4.4803110706
     C     6.8995869261   -0.8031623380    3.5834316190
     O     3.5731888533   -0.4655354379    1.0891989397
    Zn     4.3930420049   -2.2345568605    0.7856988693
     H     4.1165436500   -0.0378177916   -4.0706020179
     H     4.2455267814   -0.5138149964   -1.6565587721
     H     7.2335236431   -2.8981510679   -4.7996721669
     H     8.2616020557   -4.0136306187   -3.2133373862
     H     7.4996311039   -6.6337230161   -0.2001766469
     H     9.2991540939   -8.2864077082    0.2474955383
     H    11.6610453710   -7.7467392357   -0.2947038193
     H    13.7796522460   -3.8464959441   -2.1679044357
     H    13.3275967505   -6.1038726414   -1.1752006038
     H     9.8892985930   -1.3512613550   -2.6964907922
     H     9.7040740029    1.3950165550   -3.7806738048
     H    11.2207175197    3.1620061338   -4.6541295815
     H    13.6564861934    2.8042134277   -4.7809077480
     H    14.6769306509    0.6553693740   -4.0377863077
     H     1.0300211363    3.1725386590    0.5549872519
     H     3.0203915250    1.9839977386    1.4212925786
     H    -0.3840976836   -0.4723350746   -1.2092802632
     H     0.6174062417   -2.4241269935   -0.9235155725
     H     0.9131320592   -4.3056629827   -1.9819088935
     H     0.9352101016   -6.7551299083   -2.1453695311
     H     2.4450238298   -8.1340477096   -0.7587709117
     H     5.8239319887   -6.9148279207    2.5254142529
     H     4.3101293125   -8.1823432713    1.0369800610
     H     7.1887091319   -5.2742476645    3.7499899410
     H     8.9751613872   -3.6514621332    5.3750683880
     H     9.4388266973   -1.2486629113    5.8148068696
     H     8.1488593146    0.5274586412    4.6982531981
     H     6.3258535360   -0.0265158205    3.0865746932
