48
-1.6889465605837759e+03 frame 157   xyz file generated by TeraChem
     C    -1.0088142695    2.0766937347    0.7674678321
     C    -1.5442525108    1.1828174582   -0.2014662484
     C    -0.7319447692    0.0123481690   -0.2065694442
     C     0.3053856580    0.1819040872    0.7528837283
     C     0.1310301753    1.4590054119    1.3575850074
    Cl    -1.4303954688   -4.2930795466   -4.0506120679
     C    -2.2815933723   -3.1411345030   -3.0561031049
     C    -2.7879915628   -1.9622310553   -3.6339935715
     C    -3.4430398285   -1.0981465093   -2.8029924369
     C    -3.5522306550   -1.4679203807   -1.4336392533
     N    -3.0244570532   -2.6170849417   -0.9578336243
     N    -2.3992593446   -3.4442366581   -1.7855469529
     N    -4.1788267410   -0.6709226438   -0.5479554357
     N    -4.7082005105    0.5655570053   -0.9180324658
     C    -5.6173169725    0.8858008216   -0.0193772068
     C    -5.8182981327   -0.2385413338    0.9845886251
     C    -4.5239962248   -1.0320934653    0.8227920302
     C    -3.4439176923   -0.6450573102    1.8308309680
     C    -2.3938023418   -1.5520014787    2.1135544894
     C    -1.3950186343   -1.2291955046    3.0574062181
     C    -1.4258565181    0.0146704174    3.7242244972
     C    -2.4437616940    0.9416197832    3.4221389225
     C    -3.4358417571    0.6191840738    2.4705155475
     C    -6.3373476164    2.0981048430    0.0262865733
     C    -7.2958977384    2.4559032819    1.0326996399
     C    -7.7907535070    3.7135071752    0.7266382061
     C    -7.1542136526    4.1665460154   -0.4714164739
     C    -6.2699176820    3.1896874484   -0.8988053365
    Fe    -1.5308028150    0.3061916971    1.6502982566
     H    -1.4329270092    3.0309488691    1.0537045585
     H    -2.4665050038    1.3309588402   -0.7545681655
     H    -0.9076380446   -0.8818284782   -0.7899780957
     H     1.0532597330   -0.5536145013    1.0206835665
     H     0.7232105530    1.8638957773    2.1686837084
     H    -2.6660085157   -1.7608007019   -4.6929177570
     H    -3.8797236585   -0.1697219672   -3.1508481532
     H    -6.6731989978   -0.8499461180    0.6711990913
     H    -6.0087076616    0.0957191421    2.0059293614
     H    -4.6678644239   -2.1128286367    0.8848118802
     H    -2.3302189655   -2.4683043508    1.5349309449
     H    -0.5591415728   -1.9034693708    3.2103274250
     H    -0.6140420703    0.2961045635    4.3861678546
     H    -2.4136902021    1.9391999323    3.8472598415
     H    -4.1611264326    1.3757638832    2.1878513436
     H    -7.5818460285    1.8381902283    1.8790459696
     H    -8.5331949186    4.2650117627    1.2964465210
     H    -7.3341646124    5.1208150737   -0.9591971002
     H    -5.6371790453    3.2255648698   -1.7799847778
