35
-9.5224795306815486e+02 frame 55   xyz file generated by TeraChem
     C     5.4531461183    1.8412418465   -0.5559194539
     C     6.1371542079    0.6801028257    0.1078598104
     O     7.3442163987    0.5867293634    0.1989292126
     C     5.2167533085   -0.4089086668    0.6577085088
     C     4.7625598182   -1.3077618753   -0.4836987030
     O     3.7414059501   -1.0787182572   -1.1162913193
     C     5.6171030282   -2.4294691220   -0.8345447296
     C     5.5184632125   -3.3723980501   -1.8294776313
     C     6.6560457922   -4.1964916557   -1.7199117936
     C     7.3846014618   -3.7022125372   -0.6611994143
     O     6.7587743982   -2.6392208330   -0.1160721519
     C     8.6370507732   -4.1595336909   -0.1074104096
     N     9.1904183182   -5.2836766361   -0.5231095205
     C    10.3428917367   -5.3979786164    0.2097647413
     C    10.4714872799   -4.3006355123    1.0905656761
     N     9.3676687074   -3.5100626941    0.8608175822
     C     9.0846435993   -2.2650726162    1.5502745663
     C    11.5524353618   -4.1663986004    1.9633939790
     C    12.5124922340   -5.1677691204    1.9245448035
     C    12.4013392136   -6.2669154947    1.0497556514
     C    11.3248377239   -6.3971751476    0.1877946918
     H     6.1800959036    2.4616929942   -1.0830730836
     H     4.9454030140    2.4437351218    0.2079135497
     H     4.6774050481    1.4831967156   -1.2421554620
     H     4.3173916940    0.0427923164    1.0858506936
     H     5.7634527163   -0.9741886399    1.4152612824
     H     4.7148886176   -3.4394821561   -2.5495232279
     H     6.9326056579   -5.0441506934   -2.3298955969
     H    10.0294494601   -1.8478570072    1.9033576817
     H     8.4275729431   -2.4349827245    2.4095517844
     H     8.6156624855   -1.5459946186    0.8789876801
     H    11.6440199398   -3.3268201315    2.6460455740
     H    13.3703431959   -5.1033944677    2.5881043638
     H    13.1781383595   -7.0264472623    1.0560687714
     H    11.2323136918   -7.2423135780   -0.4878777250
