45
-1.4679641325347156e+03 frame 45   xyz file generated by TeraChem
     C     2.4715301971   -2.1239776178    2.0065430612
     C     2.6033546771   -0.7641800754    1.3254749434
     N     3.8275438090   -0.5434814424    0.5754882953
     C     4.2031705260   -1.3560435921   -0.4991884279
     C     3.5036357724   -2.2220197563   -1.3846423145
     C     4.3235773428   -2.6946150447   -2.3788324538
     S     5.9431360295   -2.0635820062   -2.2254469436
     C     5.5205153045   -1.1904527351   -0.8020281021
     C     6.1237277182   -0.1025821592    0.0415337791
     C     5.0376987479   -0.0738613244    1.2058851606
     C     4.8459181573    1.2627036300    1.8497389975
     C     5.0300119683    1.4898944561    3.1556135848
     C     5.4311329641    0.4206093004    4.0477608628
     C     5.6208648449   -0.8559856174    3.4818025685
     O     5.4740169596   -1.0859949323    2.1734419055
     C     5.9755031082   -1.9475201288    4.2840724240
     C     6.1562729525   -1.7726567321    5.6444105931
     C     5.9761618364   -0.5044042958    6.1977814550
     C     5.6148947472    0.5869664817    5.4156745900
     N     6.1657689353   -0.3197363074    7.6212020991
     O     6.4612724568   -1.2990299048    8.2944865865
     O     6.0202858897    0.8065245864    8.0801835073
     C     6.1210099961    1.2177163459   -0.7448752559
     C     7.5281472323   -0.3764097682    0.5706292732
     C     3.9814084675   -3.6633916107   -3.4629742884
     H     1.4856698080   -2.2075853567    2.4775663620
     H     3.2326355821   -2.2668139420    2.7778465786
     H     2.5671450000   -2.9391204438    1.2812782004
     H     2.5331909344    0.0416663225    2.0640225354
     H     1.7650687388   -0.6202112832    0.6316590288
     H     2.4571655675   -2.4979014475   -1.3055109303
     H     4.5190159681    2.0562300470    1.1864632009
     H     4.8669351342    2.4795406786    3.5754097290
     H     6.1109662447   -2.9184940474    3.8187528166
     H     6.4358536668   -2.6010396532    6.2845951022
     H     5.4768543073    1.5582920923    5.8784789753
     H     5.1143376873    1.4792461695   -1.0869973341
     H     6.7609461099    1.1085547615   -1.6262462951
     H     6.5155522748    2.0424308592   -0.1395686007
     H     7.5977160337   -1.3549152193    1.0496189762
     H     7.8291044657    0.3924278585    1.2921449201
     H     8.2399336686   -0.3481442618   -0.2621111288
     H     2.9129865827   -3.8955730685   -3.4228845603
     H     4.5342829356   -4.6047629706   -3.3605236124
     H     4.2019171777   -3.2591224382   -4.4576462946
