61
-1.2891560461103059e+03 frame 54   xyz file generated by TeraChem
     C     3.3197899657   -0.2324998637    0.8661712360
     C     1.8209153414   -0.2208161788    0.7467914600
     C     1.0830908176   -1.3899464779    0.6707280754
     C    -0.3187216455   -1.3717958020    0.5675476704
     C    -1.0467136441   -2.6207826657    0.4712473938
     N    -2.3294443801   -2.6546128703    0.3693680393
     C    -3.0328458309   -3.8695178585    0.2795455496
     C    -2.9113685826   -4.8922868197    1.2369167871
     C    -2.0071220977   -4.7775145677    2.4361712970
     C    -3.7006541040   -6.0371959469    1.0839836614
     C    -4.5869190193   -6.1986916011    0.0226409699
     C    -4.6948792884   -5.1572433056   -0.9043937420
     C    -3.9478139223   -3.9910551777   -0.7879088716
     C    -4.0840508980   -2.8833465036   -1.7931660089
     C    -5.4202680412   -7.4421026085   -0.1199869454
     C    -0.9970361305   -0.1315688651    0.5344857499
     C    -0.2641506014    1.0702684610    0.6032118705
     C     1.1180866266    0.9966893693    0.7126183674
     C    -1.0281537220    2.3827264104    0.5305126375
     C    -0.2758037260    3.5304025291    1.1904680688
     C     0.5004566822    4.4394827102    0.4678161786
     C     1.2004950764    5.4542570230    1.1195422590
     C     1.1311103039    5.5789063063    2.5042599042
     C     0.3553802050    4.6800871738    3.2351426451
     C    -0.3390644921    3.6669781545    2.5818165053
     C    -1.4825026526    2.7100037724   -0.8855982766
     C    -0.7177409898    2.3822732311   -2.0078250539
     C    -1.1448132600    2.7315228164   -3.2880590894
     C    -2.3474609282    3.4102999875   -3.4656786947
     C    -3.1202596874    3.7386195827   -2.3529032043
     C    -2.6888399982    3.3911874545   -1.0765387837
     O    -2.3292106594   -0.0640659313    0.4365382610
     H     3.7120673207   -1.2540005947    0.8453529524
     H     3.6504853057    0.2331117917    1.8026123182
     H     3.7912927032    0.3241697647    0.0474584688
     H     1.5886891956   -2.3542604232    0.6908497694
     H    -0.4506142288   -3.5410436782    0.4620881072
     H    -1.9363423606   -3.7458895632    2.7956301023
     H    -0.9864024739   -5.1163960040    2.2210722623
     H    -2.3858113499   -5.3978052844    3.2544211780
     H    -3.6199338921   -6.8253595154    1.8308835851
     H    -5.3884798919   -5.2536822391   -1.7382136925
     H    -4.8740489757   -3.1083313737   -2.5156723449
     H    -3.1511107488   -2.7260171956   -2.3476195486
     H    -4.3218591788   -1.9293712783   -1.3083510879
     H    -5.2028385924   -8.1619390341    0.6749202258
     H    -5.2361482519   -7.9366118762   -1.0813322202
     H    -6.4915365453   -7.2104489381   -0.0796090569
     H     1.6802766882    1.9258642542    0.7787682758
     H    -1.9435496949    2.2340373486    1.1168016396
     H     0.5513781537    4.3604838394   -0.6148815710
     H     1.7982812227    6.1523524239    0.5388549098
     H     1.6730058508    6.3730565577    3.0111524914
     H     0.2878032896    4.7707088865    4.3163622963
     H    -0.9409959749    2.9659732590    3.1568045078
     H     0.2158495071    1.8402282070   -1.8797102773
     H    -0.5363650943    2.4664331976   -4.1491117164
     H    -2.6835836431    3.6776793712   -4.4640800385
     H    -4.0644351664    4.2623103467   -2.4797933537
     H    -3.2961361364    3.6488101034   -0.2112459425
     H    -2.6630542649   -1.0110847142    0.3952709069
