97
-2.5204349380604435e+03 frame 81   xyz file generated by TeraChem
     C     2.5786308003    8.2173000852   -1.5077038939
     O     3.7768708970    7.4907904771   -1.6903128516
     C     4.5131646253    7.2016568374   -0.5880924376
     C     4.1698696034    7.5757969574    0.7131460806
     C     5.0055458187    7.2031083931    1.7661627844
     C     6.1626799270    6.4701684764    1.5432916201
     C     6.5123188385    6.0922923418    0.2366052252
     C     5.6795513200    6.4655873175   -0.8183639366
     C     7.7377354514    5.3057559382   -0.0232965922
     C     8.1538832258    4.3032253980    0.8636295241
     C     9.2906276487    3.5467057712    0.6139936268
     C    10.0559645431    3.7857818232   -0.5310340097
     C     9.6638942299    4.7947275418   -1.4161786454
     C     8.5160723432    5.5340786293   -1.1667202206
     N    11.2269125288    3.0204970044   -0.7807379938
     C    11.4492479530    2.4598783647   -2.0364603248
     C    12.7552093531    2.2170546995   -2.5021420863
     C    12.9543634663    1.6703222815   -3.7526693443
     C    11.8810997759    1.3390743004   -4.6120039471
     C    10.5773037827    1.5839949956   -4.1294868632
     C    10.3698448401    2.1272644808   -2.8777210229
     C    12.2583730601    0.7850724222   -5.8874894804
     C    11.6231982016    0.3562653517   -7.0208926341
     C    10.1726219077    0.3197725609   -7.3450389981
     O     9.2923137541    0.6529834352   -6.5825978693
     O     9.8486186621   -0.1107773450   -8.5721669556
     N    12.4494177081   -0.1067839219   -8.0359210503
     C    13.1496396945   -0.5024465969   -8.9004642214
     C    12.1433585332    2.8335444774    0.2804913703
     C    12.7066181573    1.5747447979    0.5298414785
     C    13.5869890046    1.3993864203    1.5839432919
     C    13.9212803251    2.4667295039    2.4295014200
     C    13.3471336078    3.7198813637    2.1805008168
     C    12.4753530601    3.9043922299    1.1173044079
     C    14.8393210471    2.2254434362    3.5392822208
     N    15.3064899163    1.0395916559    3.8705813409
     C    16.1218223151    1.2516533215    4.9582539235
     C    16.1381898708    2.6267118142    5.2878580382
     N    15.3067249387    3.2135910501    4.3649337989
     C    16.9114620196    3.1712707499    6.3225691679
     C    17.6870938304    2.2430871615    7.0190286915
     C    17.6792690095    0.8765724676    6.7154019346
     C    16.9061940361    0.3316992523    5.6877743826
     C    16.9216324170   -1.1172932234    5.4013562615
     C    15.7637666293   -1.7879117601    4.9716443462
     C    15.7997516209   -3.1568518210    4.7504705118
     C    16.9688300345   -3.8945816396    4.9409597683
     C    18.1236496667   -3.2314995053    5.3606199346
     C    18.0945298894   -1.8525984121    5.5854892617
     O    19.3225001893   -3.8350978673    5.5713144528
     C    19.3995146227   -5.2300100957    5.3692175661
     C    16.9183809490    4.6100220282    6.6553258426
     C    18.1209550863    5.2572713768    6.9820904472
     C    18.1156216901    6.6057507257    7.3091978121
     C    16.9324700310    7.3450238988    7.3201057899
     C    15.7333338181    6.7064260064    6.9969797154
     C    15.7321209121    5.3467077368    6.6670273670
     O    14.5189555654    7.3108932165    6.9863263456
     C    14.4564632548    8.6651520996    7.3863665210
     H     2.1443913290    8.3351978741   -2.5016550215
     H     2.7708918477    9.2074957685   -1.0759079612
     H     1.8742215385    7.6736685870   -0.8657631931
     H     3.2698442974    8.1459626648    0.9149252527
     H     4.7439255164    7.5015168846    2.7780777902
     H     6.8120651065    6.2116808362    2.3746417290
     H     5.9024481931    6.1652738716   -1.8381593960
     H     7.5556699322    4.0857320010    1.7441369344
     H     9.5847586796    2.7575829523    1.2998501101
     H    10.2655131733    4.9993489950   -2.2969790794
     H     8.2360412830    6.3270742841   -1.8546510994
     H    13.6086722961    2.4742991610   -1.8837756295
     H    13.9742953257    1.5057653754   -4.0924484397
     H     9.7282998413    1.3272827142   -4.7487653178
     H     9.3541259366    2.2882036579   -2.5317728529
     H    13.3390187518    0.6852302124   -5.9806912112
     H    10.6405755193   -0.3491824139   -9.0826690719
     H    12.4421284519    0.7327286107   -0.1027900495
     H    14.0185638551    0.4233636720    1.7812400303
     H    13.5723617263    4.5728909232    2.8150308904
     H    12.0430971057    4.8830652572    0.9328342338
     H    15.1491330455    4.2058358217    4.2716866733
     H    18.2921920576    2.5912472506    7.8518541997
     H    18.2772118534    0.2100104276    7.3305223765
     H    14.8475999169   -1.2303419711    4.8165747617
     H    14.8993608423   -3.6717609850    4.4250081709
     H    16.9682720608   -4.9635151218    4.7579028454
     H    19.0167735720   -1.3649824316    5.8872763647
     H    20.4300888644   -5.5107534055    5.5929886465
     H    19.1682101458   -5.5006181975    4.3310302622
     H    18.7221803372   -5.7720822301    6.0414478776
     H    19.0542855259    4.7027921477    6.9569912535
     H    19.0501212799    7.1032155211    7.5554508873
     H    16.9572520387    8.3978483012    7.5784914895
     H    14.7746583995    4.8713415976    6.4711277945
     H    13.4031162577    8.9450966652    7.3364764298
     H    15.0349439243    9.3104149377    6.7135341445
     H    14.8197219350    8.7953391551    8.4132990801
