101
-2.5398460814596465e+03 frame 87   xyz file generated by TeraChem
     C     4.4342204502   -0.7559764723   -7.6418146134
     O     4.6777953350    0.0061778285   -6.4766590284
     C     5.9344028125    0.4782007876   -6.2825063524
     C     7.0003948731    0.2804361172   -7.1626357193
     C     8.2498975100    0.8110767028   -6.8396503286
     C     8.4481328997    1.5312672353   -5.6702777032
     C     7.3794558024    1.7344950536   -4.7822846994
     C     6.1291058824    1.2001605504   -5.1000470400
     C     7.5817591534    2.4911257440   -3.5301036590
     C     8.7266099211    2.3404974335   -2.7455951697
     C     8.9195644400    3.0491010579   -1.5538206705
     C     7.9924371175    3.9699862776   -1.0604103157
     C     6.8335403160    4.1552854710   -1.8449869831
     C     6.6532195390    3.4187036399   -3.0383780269
     N     5.4578943130    3.8691095742   -3.5453996548
     C     4.9813144316    4.8289289095   -2.6914339073
     N     5.7784139859    5.0200301253   -1.6610700051
     C     3.7275898496    5.5421842772   -2.9139622501
     C     2.7611737675    5.0915942258   -3.8220445473
     C     1.5758002305    5.7880823333   -4.0034902215
     C     1.3280886090    6.9635325758   -3.2841873403
     C     2.2966481730    7.4248279389   -2.3811886271
     C     3.4720136925    6.7171947588   -2.1936295672
     N     0.1280100947    7.6788324322   -3.4930561824
     C    -0.3835011516    7.7673731054   -4.8186065963
     C    -1.7023497153    7.3958001785   -5.0914874385
     C    -2.1983170293    7.4852920607   -6.3852363980
     C    -1.3943592679    7.9304150980   -7.4441104670
     C    -0.0698876558    8.2883356836   -7.1541983364
     C     0.4310878393    8.2153783066   -5.8611659351
     C    -1.9264517944    8.0267048698   -8.8222456910
     C    -1.5488647369    9.0859332768   -9.6569361695
     C    -2.0680335034    9.1518236567  -10.9453507988
     C    -2.9522885135    8.1922774854  -11.4207040181
     C    -3.3554759008    7.1200641266  -10.5963724638
     C    -2.8140315793    7.0568707543   -9.2968141558
     N    -4.2465432897    6.1673943202  -11.0453346316
     C    -4.4763790098    4.9819234499  -10.2523672448
     C    -4.6137448670    6.1456118050  -12.4430530715
     C    -0.5612954590    8.2822238688   -2.4436064144
     C    -1.3600650573    9.4179482757   -2.6752217090
     C    -2.0440410611   10.0087239701   -1.6339962173
     C    -1.9794599263    9.5138028645   -0.3109414335
     C    -1.1828057099    8.3682492236   -0.0951678070
     C    -0.4947376493    7.7712491224   -1.1324471718
     C    -2.7383148446   10.2556233772    0.6633318581
     C    -2.9703738249   10.1941142813    2.0100632802
     C    -2.4722135877    9.2244397281    3.0210147509
     O    -1.8000725075    8.2499741947    2.7643069867
     O    -2.8073546787    9.4729056109    4.2946852412
     N    -3.7916142824   11.1873135383    2.5262690193
     C    -4.4908815125   12.0293702809    2.9693031084
     C     8.2262981520    4.6924618884    0.2068358616
     C     7.1665177382    4.9899935177    1.0802516960
     C     7.4207751470    5.6374545394    2.2803927060
     C     8.7147901055    6.0100778256    2.6463174688
     C     9.7703603321    5.7211406740    1.7795067376
     C     9.5215599823    5.0675547039    0.5693767676
     O    11.0701026406    6.0383212866    2.0186086373
     C    11.3619385453    6.7495331871    3.2028883690
     H     3.3810328899   -1.0380960909   -7.6017194357
     H     5.0525837641   -1.6619758491   -7.6631394194
     H     4.6191653186   -0.1703325329   -8.5509302533
     H     6.8723521864   -0.2757922892   -8.0846149209
     H     9.0790916281    0.6623835931   -7.5264621511
     H     9.4214342350    1.9579868560   -5.4468918303
     H     5.2896855533    1.2930512888   -4.4160585942
     H     9.4767391979    1.6174757839   -3.0543217084
     H     9.8142209993    2.8468537309   -0.9718838920
     H     5.0827662916    3.6336429455   -4.4522022906
     H     2.9076191310    4.1660643192   -4.3726419707
     H     0.8285810808    5.4152501787   -4.6970421161
     H     2.1269561713    8.3466562421   -1.8332944325
     H     4.2232214052    7.0773129876   -1.4977148184
     H    -2.3379549262    7.0446696544   -4.2834077045
     H    -3.2335337412    7.2163491294   -6.5766436519
     H     0.5816398059    8.6206222402   -7.9576921046
     H     1.4590125204    8.4990374332   -5.6533785051
     H    -0.8804896169    9.8597878458   -9.2914017611
     H    -1.7828321121    9.9724008973  -11.5992234400
     H    -3.3266001741    8.2762863192  -12.4344271050
     H    -3.0619631585    6.2240684934   -8.6485263321
     H    -4.8892702674    5.2374703677   -9.2686294787
     H    -3.5603322417    4.3916394203  -10.0919529336
     H    -5.2057059146    4.3491243098  -10.7609479768
     H    -5.1064648456    7.0804075853  -12.7366386633
     H    -5.3231155095    5.3335101505  -12.6114879589
     H    -3.7493835730    5.9932025797  -13.1081370951
     H    -1.4260418195    9.8379080992   -3.6732711451
     H    -2.6405498094   10.8947970888   -1.8384845327
     H    -1.1265823057    7.9449463566    0.8990004552
     H     0.0941946804    6.8816294961   -0.9341019874
     H    -3.2589152366   11.0997429448    0.2128390192
     H    -3.3470064148   10.2780204936    4.3658780206
     H     6.1544789713    4.7120374784    0.8100925483
     H     6.5978507035    5.8590876033    2.9551573241
     H     8.8836452144    6.5189776571    3.5889811539
     H    10.3623298271    4.8824300433   -0.0927547936
     H    12.4394035006    6.9225491828    3.1926059131
     H    11.0976335705    6.1706198414    4.0970390252
     H    10.8394833243    7.7141527910    3.2311933451
