83
-2.1878098512747956e+03 frame 66   xyz file generated by TeraChem
     C     3.1890176025    5.7455748357    6.7390107327
     O     3.8915783172    5.5072051493    5.5357574721
     C     4.4553062099    4.2857911805    5.3644898897
     C     4.4018784389    3.2495264786    6.2990799568
     C     5.0312970947    2.0399375086    6.0025630166
     C     5.6972339493    1.8475298532    4.8004716338
     C     5.7515154259    2.8850287907    3.8555533850
     C     5.1310879080    4.1001475675    4.1538649008
     C     6.4528793000    2.6917873613    2.5704565114
     C     7.6635105539    2.0040933173    2.4729160774
     C     8.3292788632    1.8217530279    1.2547753035
     C     7.8343369190    2.3009586744    0.0396709999
     C     6.6025778313    2.9873363619    0.1078298882
     C     5.9536937195    3.1695527390    1.3507377061
     N     4.7897921901    3.8303715870    1.0401838697
     C     4.7645903666    4.0086976621   -0.3178128874
     N     5.8371044411    3.5209293118   -0.9048746419
     C     3.6660608270    4.6721399070   -1.0138267858
     C     2.7116018395    5.4441338932   -0.3391393422
     C     1.6821176808    6.0651403613   -1.0302013401
     C     1.5725791948    5.9166612534   -2.4174677171
     C     2.5272332545    5.1507451242   -3.0992499734
     C     3.5613075105    4.5441236208   -2.4057047978
     N     0.5249830985    6.5497705538   -3.1263303233
     C    -0.7742940628    6.5816485407   -2.6142558494
     C    -1.6194622403    7.6749895162   -2.8738285032
     C    -2.9009745867    7.6959180819   -2.3630761538
     C    -3.4172830611    6.6368870876   -1.5820726926
     C    -2.5569233333    5.5468248038   -1.3302516577
     C    -1.2700211516    5.5232705601   -1.8309900673
     C    -4.7723101906    6.8129374873   -1.1197121705
     C    -5.6983033408    6.0762703531   -0.4348289356
     C    -5.6160895499    4.6825481289    0.0792339233
     O    -4.6337369715    3.9797826560   -0.0078771422
     O    -6.7209677069    4.1973570654    0.6605255137
     N    -6.9151017950    6.7020719119   -0.2014379829
     C    -7.9495015467    7.2323396362    0.0063349940
     C     0.8189939940    7.1867965839   -4.3583327624
     C    -0.0060498843    6.9833108202   -5.4691636752
     C     0.2701765618    7.6121786561   -6.6776429947
     C     1.3893926733    8.4301373311   -6.7689680055
     C     2.2332598405    8.6353613724   -5.6853131992
     C     1.9389110545    8.0155431601   -4.4756844564
    Br     1.7768263470    9.3159041552   -8.4620011638
     C     8.5699759071    2.0931447985   -1.2241069127
     C     8.5772610821    3.0719513110   -2.2325595668
     C     9.3131160478    2.8656393010   -3.3901267464
     C    10.0500661213    1.6968046988   -3.5859020488
     C    10.0378487216    0.7172546838   -2.5909956704
     C     9.3009436399    0.9199031450   -1.4210287105
     O    10.6983278579   -0.4675346585   -2.6698776936
     C    11.4584407423   -0.7170783224   -3.8333635839
     H     2.8175610076    6.7692750525    6.6723380633
     H     3.8475672574    5.6544296277    7.6117186064
     H     2.3417288336    5.0578364327    6.8519483805
     H     3.8838543941    3.3710328935    7.2438503567
     H     4.9861937773    1.2313080344    6.7274650333
     H     6.1571830522    0.8901326215    4.5745994569
     H     5.1941635519    4.9439972162    3.4718418924
     H     8.1241284784    1.6290622146    3.3828900197
     H     9.2901363358    1.3150015922    1.2640211585
     H     4.0356563750    4.0142642011    1.6853211268
     H     2.7842973355    5.6020547403    0.7336533479
     H     0.9628027984    6.6785786087   -0.4964157162
     H     2.4482138785    5.0268552143   -4.1751124020
     H     4.2969505666    3.9441520189   -2.9321011032
     H    -1.2554487902    8.5118985867   -3.4605236827
     H    -3.5277183503    8.5620259025   -2.5618967111
     H    -2.9214156256    4.7106424827   -0.7487691375
     H    -0.6369004388    4.6650000520   -1.6296276293
     H    -5.1693331294    7.7905600931   -1.3902995217
     H    -7.4383452565    4.8533325405    0.6594664749
     H    -0.8673352868    6.3273637642   -5.3859840740
     H    -0.3733889979    7.4506801124   -7.5360619013
     H     3.1008552085    9.2807757465   -5.7715658216
     H     2.5817795224    8.1765371417   -3.6155522179
     H     8.0067654569    3.9834026319   -2.0976567197
     H     9.3216103797    3.6292103613   -4.1638336812
     H    10.6128429526    1.5599510572   -4.5027203394
     H     9.2928346480    0.1275042494   -0.6784191986
     H    11.9047600432   -1.7034003567   -3.6960472630
     H    12.2550407325    0.0269523825   -3.9601596201
     H    10.8281915677   -0.7266211653   -4.7318093378
