76
-1.8385085147042910e+03 frame 92   xyz file generated by TeraChem
     C     7.9663033009   -5.3927281218   -0.0729565260
     O     7.6829759478   -4.6685566048    1.1044457019
     C     6.8514126690   -3.5899470346    0.9958535951
     C     6.3043962647   -3.1307214441   -0.2006094902
     C     5.4623424854   -2.0087186327   -0.2163871309
     C     5.1800130613   -1.3695877803    0.9810526579
     C     5.7450981538   -1.8204126061    2.1809803941
     C     6.5682301948   -2.9258025035    2.2019287886
     C     5.2153140296   -0.9751893769    3.3176218942
     C     4.0883002003   -1.7638372876    4.0043945768
     C     6.2614526436   -0.5765915640    4.3542196570
     C     4.6437347364    0.2654785769    2.5281817399
     N     4.3372854995   -0.2826542867    1.2267740395
     C     3.9287676597    0.5844464917    0.1485013293
     C     3.4542920120    0.9181948353    3.1485486487
     C     3.3365631864    2.2482793828    3.2459012795
     C     4.3770009273    3.1395135843    2.7744525038
     C     5.5642906324    2.5441607403    2.3577078942
     O     5.7493847633    1.2103158026    2.4092525513
     C     6.6530474180    3.3375085885    1.8860898920
     C     6.4960889794    4.7104189433    1.8385057760
     C     5.3069255063    5.3498351343    2.2381315581
     C     4.2211303965    4.5590469836    2.7194281272
     C     3.0360671851    5.2297371583    3.1144039419
     C     2.9396495327    6.6001452424    3.0407282827
     C     4.0182610751    7.3789364052    2.5671173141
     C     5.1787053363    6.7607421606    2.1736688465
     C     7.9371971320    2.8141499642    1.4300630292
     N     8.8297975759    3.4924506467    0.7672170620
     C     9.8973640113    2.6361468975    0.5961620380
     C     9.5990386063    1.4390573128    1.2037845298
     O     8.3352774530    1.5576733145    1.7183405297
     C    10.2878759822    0.1772198412    1.4449003318
     C    11.6722618992    0.1473485066    1.6710674620
     C    12.3179605471   -1.0601046545    1.9082092041
     C    11.5940719510   -2.2515131034    1.9349827228
     C    10.2163028368   -2.2286725518    1.7258541924
     C     9.5653321729   -1.0236548124    1.4822608276
     C    11.0722444963    3.0645171925   -0.1727857475
     C    11.4205453871    4.4215224238   -0.1908521842
     C    12.5168272980    4.8610289097   -0.9252476509
     C    13.2792579273    3.9542088724   -1.6589393315
     C    12.9302248421    2.6047190925   -1.6600781748
     C    11.8336165974    2.1625675853   -0.9279254130
     H     8.6104996091   -6.2204494908    0.2286980758
     H     8.4940457888   -4.7737640181   -0.8103370738
     H     7.0506226508   -5.7917218008   -0.5281028869
     H     6.5273098844   -3.6274391766   -1.1386303493
     H     5.0491435279   -1.6606485700   -1.1584205430
     H     7.0088255415   -3.2979611206    3.1233249109
     H     4.5012206036   -2.6977229892    4.3984618413
     H     3.2879198214   -2.0180333413    3.3014602458
     H     3.6599147779   -1.2030009067    4.8427540676
     H     6.5879979212   -1.4644619596    4.9071434710
     H     5.8359921929    0.1292435275    5.0767944806
     H     7.1357069464   -0.1154830886    3.8918043852
     H     3.2372373863    1.3377412329    0.5345191603
     H     3.3995718201    0.0015384758   -0.6122919396
     H     4.7801508728    1.0922175712   -0.3290941834
     H     2.6521028401    0.2648027422    3.4714369060
     H     2.4360372582    2.6676475211    3.6828586068
     H     7.3261166539    5.3102835142    1.4771828622
     H     2.1848224858    4.6635512296    3.4775746631
     H     2.0197776188    7.0893205810    3.3501066801
     H     3.9251420985    8.4599725781    2.5150305991
     H     6.0210445791    7.3408414683    1.8041811324
     H    12.2370452758    1.0747855756    1.6716075068
     H    13.3902037712   -1.0685430859    2.0851384404
     H    12.1016960719   -3.1938658931    2.1230128423
     H     9.6432832664   -3.1520304539    1.7437552967
     H     8.4928289361   -1.0098391845    1.3137579575
     H    10.8198614869    5.1260899200    0.3766565961
     H    12.7765626233    5.9164455635   -0.9241827556
     H    14.1358489660    4.2977137581   -2.2327575212
     H    13.5081508197    1.8923618134   -2.2430053166
     H    11.5565216270    1.1127915783   -0.9523917218
