69
-1.6269465683300018e+03 frame 55   xyz file generated by TeraChem
     C     0.7736325053    0.8003688004   -0.7242903773
     O     2.0007145886    0.1295980350   -0.9326911242
     C     2.8098621039    0.5841894236   -1.9179398472
     C     2.4997898876    1.6504315383   -2.7668476052
     C     3.4060545410    2.0326976671   -3.7528276993
     C     4.6225749294    1.3725760968   -3.8888189050
     C     4.9317614798    0.3062500603   -3.0400734238
     C     4.0304416181   -0.0877585854   -2.0653105855
     N     5.5487201715    1.7897480716   -4.8877798510
     C     6.1686138440    3.0138934099   -4.9805905365
     N     6.9040138855    3.0852955128   -6.0705466749
     C     6.7758598467    1.8824420124   -6.7150976018
     C     5.9418163933    1.0442984695   -5.9935019715
     C     5.5258528563   -0.3494071525   -6.2075013173
     C     6.4975060428   -1.3437205116   -6.3895787416
     C     6.1263419444   -2.6674649090   -6.6015962274
     C     4.7785722162   -3.0218993860   -6.6259964150
     C     3.8046351221   -2.0424127674   -6.4438820611
     C     4.1732426517   -0.7159923849   -6.2398181741
     C     7.4712076345    1.6572200192   -7.9902115059
     C     8.6303475406    2.3949861000   -8.2707709644
     C     9.3106392423    2.2227447653   -9.4711270043
     C     8.8458678554    1.3119020198  -10.4182801252
     C     7.6871771459    0.5833532357  -10.1559013908
     C     7.0024832525    0.7566776908   -8.9571309231
     C     6.0478173240    4.1126061043   -4.0140192836
     C     5.9670399278    3.8935261776   -2.6223283337
     C     5.8914490264    4.9437825519   -1.7193893276
     C     5.9041805126    6.2457453379   -2.2232612850
     C     5.9960332670    6.4900940767   -3.6162522185
     C     6.0724996399    5.4208485732   -4.5043287799
     C     5.9709903281    7.9243505482   -3.7817914095
     C     6.0258568628    8.7717983621   -4.8903928614
     C     5.9672674374   10.1453532915   -4.6912825517
     C     5.8539877164   10.6759137157   -3.3971583614
     C     5.7995035777    9.8546601403   -2.2766382917
     C     5.8638658005    8.4753038630   -2.4813057708
     N     5.8431754847    7.4494248571   -1.5522025941
     C     5.6695926172    7.6121991596   -0.1243170410
     C     4.2066783971    7.6456677878    0.2991936282
     H     0.2950405591    0.2962833551    0.1165102715
     H     0.1247530786    0.7309600655   -1.6060838346
     H     0.9327165889    1.8563246213   -0.4732397703
     H     1.5602350129    2.1836709726   -2.6761278061
     H     3.1673284617    2.8576225230   -4.4176837200
     H     5.8808288371   -0.2101112921   -3.1486361217
     H     4.2543410266   -0.9150471482   -1.3988674526
     H     7.5482495916   -1.0685960055   -6.3622984535
     H     6.8928178766   -3.4253041916   -6.7407025226
     H     4.4887880633   -4.0568472678   -6.7871307739
     H     2.7513950664   -2.3095483503   -6.4668342492
     H     3.4082581333    0.0442138458   -6.1099940527
     H     8.9862343762    3.1057685261   -7.5311100466
     H    10.2096265446    2.8018932871   -9.6669376159
     H     9.3781360615    1.1757277617  -11.3560742682
     H     7.3056535861   -0.1178019702  -10.8939183633
     H     6.0891749734    0.1987413359   -8.7755227865
     H     5.9777645242    2.8786509418   -2.2386017127
     H     5.8308369166    4.7442440895   -0.6535299501
     H     6.1478950876    5.5861352452   -5.5751933095
     H     6.1118882252    8.3599254440   -5.8927419261
     H     6.0073396380   10.8172689235   -5.5439633162
     H     5.8056094814   11.7535807588   -3.2647158342
     H     5.7060255620   10.2800758997   -1.2815152264
     H     6.1799327474    8.5349054461    0.1705058354
     H     6.1982484238    6.7926455594    0.3731206218
     H     3.6786385663    8.4702514000   -0.1904961167
     H     4.1286707801    7.7818272694    1.3830977924
     H     3.7034986487    6.7104022803    0.0329534282
