47
-1.4700155274852912e+03 frame 67   xyz file generated by TeraChem
     C     2.5635464081    0.9038857693   -0.9111650006
     O     2.6491540828    0.8492907633    0.4976520757
     C     3.5279739779   -0.0265841923    1.0440668292
     C     4.3584522989   -0.8811356873    0.3136189675
     C     5.2225760161   -1.7403576381    0.9865216752
     C     5.2840028653   -1.7735358113    2.3823651457
     C     4.4426520903   -0.9071799933    3.0982054301
     C     3.5788826673   -0.0478409599    2.4434531485
     C     6.1881834733   -2.6748249764    3.0991851370
     N     6.2451346534   -2.6845224405    4.4636872261
     C     7.1500139139   -3.6029860735    4.7789483135
     N     7.6832627576   -4.1921015329    3.6305447877
     C     7.0693600605   -3.5995086479    2.5597514988
     C     8.6374989114   -5.1708859591    3.6997665239
     C     9.0868086581   -5.5898267022    4.9124658238
     C     8.5805296303   -5.0252896013    6.1281109721
     C     7.6165824188   -4.0367711593    6.0330290308
     C     9.0374378972   -5.4473405368    7.4442024677
     C     9.9557010865   -6.3988219368    7.7087226997
     C    10.4186349020   -6.8247451537    9.0245583809
     C     9.9730504370   -6.2629704364   10.2311111062
     C    10.4461838497   -6.7064687805   11.4583191093
     C    11.3913024231   -7.7374494100   11.5239243478
     C    11.8473907452   -8.3088989893   10.3284732147
     C    11.3683701890   -7.8576462556    9.1095486078
     S    12.0646337889   -8.3785338029   13.0256205271
     C    11.2219241371   -7.4304318520   14.3094494187
     H     1.8087449593    1.6584252259   -1.1379621050
     H     2.2511556939   -0.0601414779   -1.3319684185
     H     3.5198198387    1.2007300607   -1.3600770279
     H     4.3416152807   -0.8864509318   -0.7708275265
     H     5.8600993233   -2.3959351479    0.3987016614
     H     4.4795706529   -0.9214731865    4.1830064072
     H     2.9276882291    0.6221983357    2.9973079333
     H     7.3073487865   -3.8825774599    1.5455486285
     H     8.9904867704   -5.5670065950    2.7546207724
     H     9.8434178513   -6.3655521761    4.9339390198
     H     7.1960532866   -3.5721068226    6.9193236445
     H     8.5661117368   -4.9193282227    8.2719026850
     H    10.4209902749   -6.9288516573    6.8784920334
     H     9.2417593338   -5.4594341976   10.2210561225
     H    10.0714389593   -6.2398316252   12.3633055910
     H    12.5809627205   -9.1109740258   10.3564902581
     H    11.7360317683   -8.3156213779    8.1938523875
     H    11.6109072299   -7.8076290690   15.2585303371
     H    10.1407935655   -7.5910778604   14.2822858631
     H    11.4474380121   -6.3632097452   14.2356008205
