40
-1.3534121976396100e+03 frame 36   xyz file generated by TeraChem
     C     1.7287118282   -0.3188986664   -0.5333630147
     O     2.2428593651    0.9968654925   -0.5052290426
     C     3.0487063405    1.3379382947    0.5301632080
     C     3.4065072836    0.4801155119    1.5740944957
     C     4.2414739254    0.9415291334    2.5874726807
     C     4.7366440152    2.2485337261    2.5911612505
     C     4.3675622244    3.0946776524    1.5335529565
     C     3.5382962949    2.6501196063    0.5193411651
     C     5.6117657653    2.7423902173    3.6558970714
     C     6.0639093244    2.0512365463    4.7697514731
     N     6.8425234676    2.9376530478    5.4632472467
     C     6.8336369921    4.1336892013    4.7422639615
     N     6.0906440557    4.0213479957    3.6479054484
     C     7.5652967980    5.2244234242    5.2454612823
     C     8.2743191652    5.1163507141    6.4297182280
     C     8.2444924269    3.8615584149    7.1205228797
     C     7.5396312026    2.8061578121    6.6337292446
     C     9.0125923840    6.2684198690    6.9214614194
     C     9.7184446896    6.3383168034    8.0702529875
     C    10.4484768584    7.5001692148    8.5285437856
     C    10.6623397503    8.7256331695    7.9316368559
     C    11.4413790811    9.6074132511    8.7211916328
     C    11.8226856201    9.0573984470    9.9158180034
     S    11.2300999873    7.4543255130   10.0841509283
     H     1.1115133211   -0.3817713628   -1.4309406491
     H     1.1096110647   -0.5263271238    0.3483936237
     H     2.5335417147   -1.0622753516   -0.5928551988
     H     3.0441060126   -0.5414581298    1.6084233218
     H     4.5066360487    0.2568286748    3.3891668550
     H     4.7450980873    4.1124804289    1.5230392925
     H     3.2524046828    3.3048464472   -0.2988385714
     H     5.9074294921    1.0428381929    5.1216848874
     H     7.5515103385    6.1499998633    4.6785704291
     H     8.7885393885    3.7250094377    8.0477893427
     H     7.4880865058    1.8385962792    7.1193107378
     H     8.9669524067    7.1471396645    6.2795205250
     H     9.7587198039    5.4716181312    8.7274889497
     H    10.2752272755    8.9829319930    6.9513184909
     H    11.7125662505   10.6124378590    8.4156510072
     H    12.4170193958    9.5034477131   10.7026384398
