43
-1.0327111761185188e+03 frame 61   xyz file generated by TeraChem
     C     2.5075737384   -0.1706426182   -1.7181013347
     O     2.5919336590   -0.2338709564   -0.3095462351
     C     3.4691045855   -1.1140480393    0.2324097148
     C     4.2991754109   -1.9653369554   -0.5023392462
     C     5.1613985163   -2.8297189888    0.1663064571
     C     5.2213702726   -2.8712955627    1.5619939321
     C     4.3806302648   -2.0079731086    2.2822191461
     C     3.5186837257   -1.1436327143    1.6317179773
     C     6.1232138978   -3.7786742204    2.2739809598
     C     7.0012791283   -4.7034823487    1.7292542435
     N     7.6133950288   -5.3039309044    2.7963613154
     C     7.0825107515   -4.7191535737    3.9481250509
     N     6.1806784486   -3.7959757824    3.6382323969
     C     7.5477551848   -5.1617231310    5.1996648976
     C     8.5070176947   -6.1549930269    5.2883466721
     C     9.0118888654   -6.7141828033    4.0699457475
     C     8.5643565584   -6.2863655836    2.8596682262
     C     8.9608818603   -6.5878740881    6.6027171233
     C     9.8607215845   -7.5570644526    6.8616392143
     C    10.3186662884   -7.9955998716    8.1783016218
     C     9.9226038650   -7.3860784352    9.3816927842
     C    10.3895011039   -7.8529566850   10.6029607887
     C    11.2647597978   -8.9388798728   10.6584648869
     C    11.6704137518   -9.5522235946    9.4758717290
     C    11.2032031110   -9.0838582407    8.2526591796
     H     1.7538005744    0.5860981218   -1.9409126265
     H     2.1944374420   -1.1317526005   -2.1449713161
     H     3.4645626101    0.1278345073   -2.1643789856
     H     4.2834833861   -1.9641314265   -1.5868150464
     H     5.7986557141   -3.4825988813   -0.4248034757
     H     4.4163552562   -2.0287097189    3.3669560266
     H     2.8678237137   -0.4760224295    2.1888813674
     H     7.2379369331   -4.9818218186    0.7134350399
     H     7.1291358527   -4.7007695590    6.0887921198
     H     9.7668374910   -7.4916004482    4.0873083268
     H     8.9165059475   -6.6775053327    1.9121548891
     H     8.4998384174   -6.0549906748    7.4330153430
     H    10.3089833369   -8.0984538908    6.0294135609
     H     9.2465495463   -6.5358450595    9.3639916849
     H    10.0705884221   -7.3653487326   11.5205453371
     H    11.6277615272   -9.3003596327   11.6167226137
     H    12.3529490105  -10.3975607364    9.5047892996
     H    11.5231596958   -9.5669821869    7.3318620247
