43
-1.0327115521629044e+03 frame 40   xyz file generated by TeraChem
     C     0.7671337105    0.6065425672    0.9926639107
     O     1.7260345982    0.2687174163    0.0101661973
     C     2.3576758112    1.2825294912   -0.6283199862
     C     2.1299784480    2.6408733736   -0.3785402169
     C     2.8323035949    3.6032612070   -1.0923702086
     C     3.7767295213    3.2558926368   -2.0696412852
     C     3.9852176052    1.8838078308   -2.3021695144
     C     3.2947526156    0.9118045892   -1.5996838159
     C     4.5375589024    4.2290110323   -2.8451949113
     C     4.4901943116    5.5717444934   -2.7298889107
     C     5.2497691331    6.5372561997   -3.5108140458
     C     6.1713627519    6.1511249341   -4.5390022396
     C     6.8629913824    7.0793247563   -5.2507965516
     N     6.6817909704    8.4103655155   -4.9866402675
     C     5.8004966111    8.8506533789   -3.9969929083
     C     5.0846419970    7.8879853678   -3.2611588448
     N     5.7939915810   10.1757360351   -3.9240905048
     C     6.6774660050   10.6013666335   -4.8750285996
     C     7.2406102812    9.5279006716   -5.5459343003
     C     6.9380347121   12.0278466124   -5.0915548531
     C     7.8091393615   12.4693241080   -6.0969810352
     C     8.0446808819   13.8263787112   -6.2850842574
     C     7.4139731119   14.7679066184   -5.4730471617
     C     6.5444315960   14.3385249066   -4.4719497971
     C     6.3074961186   12.9815120919   -4.2822757663
     H     0.3833854917   -0.3402201207    1.3756078516
     H    -0.0593544957    1.1862289896    0.5632629689
     H     1.2189716794    1.1744000250    1.8153628926
     H     1.4082293640    2.9570201918    0.3666232095
     H     2.6306501583    4.6491271889   -0.8780455816
     H     4.7097915309    1.5793405661   -3.0545372662
     H     3.4630970450   -0.1446968171   -1.7863237769
     H     5.2044630084    3.7874264777   -3.5850552925
     H     3.8297480616    6.0174754095   -1.9874393466
     H     6.3359347759    5.1054854523   -4.7715339140
     H     7.5689587904    6.8360280389   -6.0364654568
     H     4.4010968661    8.2395789784   -2.4946020796
     H     7.9662615810    9.4574496875   -6.3419696686
     H     8.3056533304   11.7482277350   -6.7412632733
     H     8.7230316376   14.1504716753   -7.0701216931
     H     7.5985981589   15.8286038882   -5.6208585215
     H     6.0474312138   15.0651301359   -3.8343059873
     H     5.6304951955   12.6388199379   -3.5058779238
