38
-2.3869445491005690e+03 frame 43   xyz file generated by TeraChem
     C     2.0594079108   -1.0111912473   -1.1668617416
     C     0.5890531449   -0.9853057235   -0.9092589875
     C    -0.2650773463   -2.0414651841   -0.7396594636
     C    -1.6129188027   -1.6535229510   -0.5094643477
     C    -1.7945536489   -0.2929051404   -0.5096527758
     S    -0.2740650152    0.5131854548   -0.7829768684
     C    -3.0353770047    0.4500839243   -0.2636000081
     C    -3.7892988830    0.2193225173    0.8895173345
     S    -3.3698552227   -0.9246636918    2.1471579387
     C    -4.7913250318   -0.4687646961    3.0370526899
     C    -5.5547132708    0.4799089974    2.4500901712
     C    -4.9892245765    0.9135822150    1.2007646595
     C    -5.4832246708    1.8995943687    0.3227037193
     C    -4.7371745462    2.1198672317   -0.8375987271
     C    -3.5375824655    1.4251790663   -1.1492385877
     C    -2.9788530098    1.8498505315   -2.4046707106
     C    -3.7203351337    2.8274564478   -2.9719136101
     S    -5.1322036376    3.2959144625   -2.0734550891
    Br    -3.3660608800    3.6848045955   -4.6521304839
     C    -6.7065058854    2.6660849352    0.5849155044
     C    -7.7945133627    2.8210171394   -0.2375510232
     C    -8.7964532681    3.6686791693    0.3079809660
     C    -8.4794585102    4.1700305213    1.5414786449
     S    -6.9228960896    3.5939309261    2.0438133707
     C    -9.2823516648    5.0832932113    2.4076688562
    Br    -5.1525384481   -1.3352261498    4.7110773789
     H     2.4023288993   -2.0483261666   -1.2237697593
     H     2.6207726893   -0.5106017435   -0.3695980690
     H     2.3154412184   -0.5161009535   -2.1105873948
     H     0.0658723466   -3.0742865035   -0.7861800598
     H    -2.4297918041   -2.3554413065   -0.3749401805
     H    -6.4776976391    0.8607987433    2.8686281644
     H    -2.0817279974    1.4352481495   -2.8468349841
     H    -7.8827511190    2.3179302453   -1.1951649808
     H    -9.7313602579    3.8976697258   -0.1940252942
     H   -10.2242643722    5.3269935794    1.9077999127
     H    -8.7528109485    6.0211488503    2.6108056034
     H    -9.5191239751    4.6230444432    3.3738322144
