67
-1.3676690547339567e+03 frame 96   xyz file generated by TeraChem
     C     4.0057381501   -2.4011417836    4.3907299253
     C     4.3684217604   -1.6218507229    3.1344432977
     C     3.9109059047   -2.2207705809    1.8255283294
     C     3.0628952559   -3.3245864256    1.7587138396
     C     2.6505445394   -3.8676694442    0.5399188954
     C     1.7111172029   -5.0417656514    0.4905836322
     C     3.1209483093   -3.2763101253   -0.6314235831
     C     3.9642192040   -2.1631666247   -0.6204855221
     C     4.3501281791   -1.6303318983    0.6239834666
     N     5.2656579112   -0.5631781646    0.7112815845
     C     4.8857952456    0.6131771970    0.3878781540
     C     5.7932456352    1.7626433800    0.4344036470
     C     7.1151406405    1.6136522238    0.8708843345
     C     7.9853251556    2.6919434939    0.9444962909
     C     9.3974279409    2.5373116045    1.4382550280
     C     7.4963465192    3.9441484344    0.5537814420
     C     6.1958327350    4.1445922061    0.0956409190
     C     5.3336696565    3.0323834970    0.0421333407
     O     4.0566143681    3.1118608280   -0.4131530102
     C     5.7864977929    5.5427505071   -0.3526488885
     C     5.9762009933    5.7733217787   -1.8451277613
     C     5.6825075115    4.7973119653   -2.8018592386
     C     5.8634656190    5.0556874137   -4.1588847960
     C     6.3412111441    6.2934089280   -4.5826392429
     C     6.6360268999    7.2739935050   -3.6381740745
     C     6.4541407565    7.0128132653   -2.2827998301
     C     4.4082374236    5.9602404160    0.1678489360
     C     4.1660500535    5.8956972859    1.5483727754
     C     2.9425443631    6.2868628324    2.0773508707
     C     1.9297982927    6.7478272610    1.2350324380
     C     2.1553799982    6.8133847461   -0.1351164690
     C     3.3870115284    6.4256346938   -0.6668959792
     C     4.5003361931   -1.6178361605   -1.9227549484
     C     5.9643125632   -1.9932435104   -2.1617213706
     H     4.4204628200   -1.9051447168    5.2745154389
     H     4.4054173474   -3.4212982112    4.3613657802
     H     2.9210227196   -2.4701723299    4.5305110498
     H     5.4578445043   -1.4876069904    3.0821826275
     H     3.9695754921   -0.6004663644    3.2149527844
     H     2.7130852604   -3.7825455422    2.6807163117
     H     1.7678933392   -5.6390562911    1.4065950875
     H     1.9355586419   -5.6975895153   -0.3574872388
     H     0.6687428163   -4.7150424847    0.3792573706
     H     2.8269986181   -3.6943106112   -1.5935437418
     H     3.8576557481    0.8178125003    0.0701892962
     H     7.4401233370    0.6179629012    1.1612301128
     H     9.6578374017    1.4820963963    1.5628041406
     H     9.5373773413    3.0317974743    2.4074747064
     H    10.1167064242    2.9834337302    0.7418293816
     H     8.1616645544    4.8056528321    0.5985528072
     H     3.7667562303    4.0416432871   -0.4172593214
     H     6.4934614659    6.2207729679    0.1440125542
     H     5.3111778410    3.8252142856   -2.4908773832
     H     5.6332240631    4.2819379447   -4.8867142698
     H     6.4866859540    6.4911528523   -5.6412765893
     H     7.0147795715    8.2423189679   -3.9550496249
     H     6.6907814948    7.7819410337   -1.5499469935
     H     4.9502000654    5.5305616214    2.2079223293
     H     2.7766845183    6.2313072826    3.1499752681
     H     0.9715460465    7.0512803954    1.6477066985
     H     1.3741917737    7.1705397595   -0.8009068538
     H     3.5551537357    6.4892750400   -1.7381162517
     H     4.3998941395   -0.5270468534   -1.9585898144
     H     3.8855227109   -2.0072939983   -2.7428207604
     H     6.6031652727   -1.5928865185   -1.3673494334
     H     6.3184353054   -1.5940653798   -3.1188359947
     H     6.0895119897   -3.0815893535   -2.1778976960
