49
-1.2570418066980342e+03 frame 72   xyz file generated by TeraChem
     C     1.0677986524   -0.8241080259   -0.8005751495
     C     1.2161976535    0.0439680114    0.4183503843
     C     1.0378377037    1.4070315843    0.3774231308
     C     1.1832913114    2.2235159817    1.5248678111
     C     0.9838100027    3.6310473785    1.4632848956
     N     0.7109200831    4.2972723578    0.3753429966
     C     0.3848608395    5.6279465949    0.4710158491
     C    -0.3672970080    6.1765832775    1.5109450992
     C    -0.7191969836    7.5366854606    1.5387160393
     C    -0.3448335714    8.3943643123    0.5275348387
     C     0.4061152900    7.8944024831   -0.5593319161
     C     0.7750352663    6.5124947325   -0.6021462759
     N     1.5009243517    6.0047396310   -1.6202222445
     C     1.8743785867    6.8012483860   -2.6056560072
     C     1.5606194546    8.1793991254   -2.6646409406
     C     0.8273545600    8.7121406992   -1.6376527856
     C     2.6540082206    6.1602796680   -3.6639116029
     N     3.1392520316    6.7328816464   -4.7468690041
     C     3.7902437996    5.7159613973   -5.4119146940
     C     3.6798176544    4.5020770758   -4.6876161509
     N     2.9463795953    4.8297791589   -3.5786937467
     C     4.2493192029    3.3100653378   -5.1330119154
     C     4.9416921476    3.3596957443   -6.3362019449
     C     5.0620747676    4.5553026188   -7.0696636553
     C     4.4931332581    5.7392569045   -6.6219344784
     C     1.5374240636    1.6486042284    2.8124969707
     C     1.7122773483    0.2001075471    2.8235329016
     C     1.5554906188   -0.5341464254    1.6750963388
     C     2.0768162331   -0.4225822521    4.1363022195
     O     1.6913963810    2.3214534593    3.8641907642
     H     0.7956220061   -0.2257638270   -1.6768849900
     H     0.2906855983   -1.5906388991   -0.6706634754
     H     1.9970200075   -1.3595338280   -1.0419300666
     H     0.7757538874    1.9002382457   -0.5581256707
     H     1.1049479376    4.1479438526    2.4250785368
     H    -0.7128776359    5.5193857427    2.3040323978
     H    -1.3080294789    7.9097103205    2.3737139988
     H    -0.6215125748    9.4455990038    0.5462425905
     H     1.9018613794    8.7727325117   -3.5063331011
     H     0.5597647038    9.7666835868   -1.6345326757
     H     2.6455172025    4.2500069015   -2.8052727343
     H     4.1573144003    2.3876848620   -4.5669272196
     H     5.4019580638    2.4530937024   -6.7200725544
     H     5.6136186519    4.5470006333   -8.0061375485
     H     4.5847750166    6.6634817624   -7.1855946438
     H     1.6994212165   -1.6160069918    1.7234189850
     H     1.3322878268   -0.1803518401    4.9053214789
     H     3.0288035859   -0.0229453985    4.5093877592
     H     2.1613385743   -1.5122667106    4.0582059459
