49
-1.1941952973666912e+03 frame 42   xyz file generated by TeraChem
     F    -1.9105777229   -2.0723108862    0.2928293273
     C    -1.1854273664   -0.9578814555    0.0853781480
     C    -1.8576774716    0.2442525818   -0.0719118575
     C    -1.1163084789    1.4076560730   -0.2592887861
     C     0.2764169008    1.3517068171   -0.2818427214
     C     0.9255095399    0.1320041642   -0.1162885926
     C     0.2056349528   -1.0528819705    0.0728613409
     C     0.8825465106   -2.3751823631    0.1686977924
     N     0.5556568232   -3.2187427293   -0.8202392430
     C     1.1493664039   -4.4043717405   -0.8845483585
     C     0.7718583573   -5.3057302192   -2.0271184403
     C     2.0111622658   -6.0304611401   -2.5470006766
     C     2.6481503410   -6.7910355572   -1.4158152388
     C     2.6828460072   -6.1948768825   -0.1364042256
     C     2.1464815307   -4.8237829329    0.0215364796
     C     2.5614736111   -3.9017089899    0.9952435408
     C     1.8589118790   -2.6811702680    1.1317806619
     C     2.1921063599   -1.8076904434    2.2812130747
     C     1.2360744041   -1.0246038952    2.9409751304
     C     1.5908964439   -0.2348702816    4.0297193296
     C     2.9082076850   -0.2219149252    4.4833782672
     C     3.8578258419   -1.0274106472    3.8601180363
     C     3.5105808920   -1.8276699460    2.7733232912
     C     4.4773995906   -2.7734052339    2.1235803784
     C     3.7751517000   -4.1063569772    1.8682688822
     C     3.1516934380   -6.9548710302    0.9442028318
     C     3.6414493313   -8.2441644221    0.7587683877
     C     3.6590830878   -8.8040118877   -0.5154675971
     C     3.1490607508   -8.0792283900   -1.5902648418
     H    -2.9429459802    0.2539932408   -0.0424801859
     H    -1.6300065919    2.3564407427   -0.3864469410
     H     0.8573873568    2.2568416850   -0.4331471171
     H     2.0109473157    0.0851544271   -0.1380991576
     H     0.2953365019   -4.7038764033   -2.8061180093
     H     0.0338360014   -6.0471001054   -1.6862323006
     H     2.7159043013   -5.2924811559   -2.9581731415
     H     1.7499299405   -6.7133627077   -3.3618165187
     H     0.2020387972   -1.0439483238    2.6130858070
     H     0.8334528569    0.3635639327    4.5288900152
     H     3.1900783609    0.3956446778    5.3321989771
     H     4.8813144441   -1.0493395119    4.2285012609
     H     5.3563809926   -2.9221679760    2.7589714750
     H     4.8334271118   -2.3646533727    1.1665433497
     H     3.4864682031   -4.5446595298    2.8348627450
     H     4.4621047375   -4.8112093674    1.3915521789
     H     3.1052750273   -6.5502219529    1.9493509281
     H     3.9972031723   -8.8125829357    1.6138744811
     H     4.0426175802   -9.8092207289   -0.6690504906
     H     3.1208453195   -8.5255328339   -2.5820114343
