54
-1.6445566373261190e+03 frame 103   xyz file generated by TeraChem
     C     1.4586423898    0.6342648578   -0.7775097383
     C     2.6355735792    0.5756372433    0.1884469912
     C     3.8852243199    1.2014908830   -0.4247465458
     N     5.0382107765    1.1494914356    0.4692649507
     C     5.5444378151   -0.0986467297    0.8528853548
     C     5.2811773995   -1.2732059196    0.1357341369
     C     5.7923843688   -2.4916254259    0.5601988465
     C     6.6105597721   -2.5937443953    1.6942160567
     C     6.8930752631   -1.4113987726    2.3999638588
     C     6.3577353803   -0.1982974935    2.0003741081
     S     6.6021443032    1.2520848028    2.9860887104
     C     6.7307699293    2.4237821217    1.6648524608
     C     5.9035514093    2.2621120889    0.5413316302
     C     5.9857393706    3.2135406925   -0.4829866053
     C     6.8287308448    4.3154171091   -0.3613382376
     C     7.6362449636    4.4706529601    0.7610908290
     C     7.5986963341    3.5076713832    1.7662076511
     C     7.1246371588   -3.9006362569    2.0777572670
     C     7.9896054010   -4.1733995077    3.0764568205
     C     8.4428925969   -5.5180224670    3.4150288374
     C     7.6653443399   -6.6183261336    3.1947317709
     C     8.0837600565   -7.9590462040    3.5188501801
     O     7.4448161636   -8.9737231250    3.3250156077
     O     9.3127505987   -8.0958531055    4.1238087502
     C    10.1201761294   -7.0274267353    4.3662183430
     C     9.7498049937   -5.7186581866    4.0268188317
     C    10.6724332505   -4.6888017773    4.2839255084
     C    11.9053305377   -4.9342144479    4.8733146151
     C    12.8809981217   -3.8210642011    5.1353783043
     C    12.2266824800   -6.2594092426    5.2146258641
     C    11.3495028573   -7.3001578729    4.9633023146
     H     0.5591363814    0.2053813517   -0.3244490764
     H     1.6705624978    0.0728436434   -1.6952815172
     H     1.2289401853    1.6675065353   -1.0639823539
     H     2.8273205162   -0.4640777642    0.4753368636
     H     2.3977768113    1.1163613038    1.1126821806
     H     3.6729887247    2.2563199395   -0.6114361114
     H     4.1118007188    0.7481785295   -1.4023621130
     H     4.6730281601   -1.2383686629   -0.7615790684
     H     5.5646476219   -3.3877290070   -0.0119070820
     H     7.5193178574   -1.4342345104    3.2872079011
     H     5.3969906253    3.0929429257   -1.3862419305
     H     6.8625725693    5.0459547316   -1.1648570141
     H     8.2994164859    5.3257339979    0.8525832193
     H     8.2334521129    3.5986591062    2.6435007190
     H     6.7757535459   -4.7249014541    1.4557386331
     H     8.3982820493   -3.3602915130    3.6703258780
     H     6.6643502004   -6.5334157381    2.7873529550
     H    10.4221065697   -3.6699572301    4.0040863786
     H    12.4613996641   -2.8508466122    4.8543684715
     H    13.8076785330   -3.9660090759    4.5674756206
     H    13.1567456777   -3.7774016507    6.1954279798
     H    13.1860254133   -6.4739167279    5.6797574388
     H    11.5960128274   -8.3269632042    5.2151893701
