52
-1.6804367357694209e+03 frame 59   xyz file generated by TeraChem
     C     0.8467218648   -0.0697899231    1.1431257368
     C     2.2807206351   -0.0874920538    1.6581974616
     C     3.2268656397    0.5994182374    0.6771449399
     N     4.6014519634    0.6581272401    1.1646033947
     C     5.2943790407   -0.5345767911    1.4047385837
     C     4.9275207240   -1.7517896419    0.8167466814
     C     5.6331222487   -2.9132971577    1.0967473961
     C     6.7425195136   -2.9143791671    1.9542862001
     C     7.1305420754   -1.6863314270    2.5171379778
     C     6.4137567482   -0.5285772751    2.2619731654
     S     6.8324252088    0.9818498094    3.0870937714
     C     6.4708994718    2.0961533173    1.7584021240
     C     5.3598636906    1.8267865692    0.9427406756
     C     5.0559799914    2.7292565652   -0.0836517705
     C     5.8086674605    3.8883182011   -0.2541797056
     C     6.9013791438    4.1509149609    0.5665726743
     C     7.2424937131    3.2385302944    1.5619733776
     C     7.4261710451   -4.1735023890    2.2120123343
     C     8.4595604375   -4.3885068655    3.0517959646
     C     9.0690341022   -5.6975030038    3.2665056163
     C     8.3654145578   -6.8571741434    3.0949382991
     C     8.9400392399   -8.1615543107    3.2867456709
     O     8.3756656256   -9.2253650576    3.1305204172
     O    10.2556742419   -8.2073386205    3.7038477182
     C    10.9908716092   -7.0823084886    3.9034673697
     C    10.4533818146   -5.7983443614    3.6932319227
     C    11.3135240595   -4.7057300736    3.9003079640
     C    12.6214672363   -4.8788207080    4.3105268230
     C    13.1201041287   -6.1741694800    4.5227577175
     C    12.3017885522   -7.2803669821    4.3153333507
     O    14.3880563473   -6.4066240985    4.9204217779
     H     0.1692769497   -0.5506366117    1.8560041766
     H     0.7606642274   -0.6030979234    0.1889741645
     H     0.4936413956    0.9561455187    0.9849306260
     H     2.5951713039   -1.1212870369    1.8380929576
     H     2.3477445191    0.4332044402    2.6210994810
     H     2.8900420316    1.6317856814    0.5574845786
     H     3.1670050382    0.1319454378   -0.3180171596
     H     4.0866079539   -1.7952642004    0.1329283691
     H     5.3205848728   -3.8454820663    0.6324859007
     H     7.9931410337   -1.6281602663    3.1747998601
     H     4.2335230292    2.5245397162   -0.7609482008
     H     5.5435261977    4.5789303015   -1.0499134465
     H     7.4930585994    5.0511283090    0.4291014662
     H     8.1019958603    3.4150119274    2.2030932619
     H     7.0436814126   -5.0174422325    1.6383433716
     H     8.8836162588   -3.5561130483    3.6070310332
     H     7.3147941984   -6.8520230804    2.8286409200
     H    10.9534309347   -3.6969456721    3.7280136174
     H    13.2681727700   -4.0185963378    4.4647615973
     H    12.6793072398   -8.2858597167    4.4667934870
     H    14.8521404052   -5.5625806140    5.0306378729
