53
-1.7555777208780091e+03 frame 53   xyz file generated by TeraChem
     C     0.9653434369   -1.2161741583    2.1995195096
     C     2.4692042601   -1.2325528696    2.4429258493
     C     3.2181716179   -0.4981473421    1.3340408619
     N     4.6645269058   -0.5161822659    1.5272307473
     C     5.3390057639   -1.7435352064    1.5164476151
     C     4.8003915184   -2.8947623977    0.9186847945
     C     5.4874131200   -4.0976424270    0.9376718791
     C     6.7576565715   -4.2036625662    1.5269455989
     C     7.3055813995   -3.0457235390    2.1011270824
     C     6.6068139474   -1.8472415944    2.1150391282
     S     7.2525626486   -0.4383796357    2.9711570880
     C     6.6781914256    0.8081760333    1.8521511908
     C     5.4133985392    0.6497317037    1.2620443043
     C     4.9509846973    1.6582407994    0.4076986683
     C     5.7060905139    2.8089829774    0.1942870300
     C     6.9532233193    2.9597719884    0.7927696799
     C     7.4460924095    1.9434456846    1.6072331580
     C     7.5304924826   -5.4368444654    1.5781302700
     C     7.2131934027   -6.6213541918    1.0168233211
     C     8.0345616877   -7.8213232698    1.1477326758
     C     8.7957928924   -8.0505098096    2.2583448593
     C     9.6150990285   -9.2233400200    2.4233331681
     O    10.3209708249   -9.4749538246    3.3783530485
     O     9.5764878847  -10.1574900464    1.4095410418
     C     8.8274366434   -9.9685775846    0.2912726307
     C     8.0392449343   -8.8209008552    0.0922118948
     C     7.3253448256   -8.7067863111   -1.1109325941
     C     7.3770555592   -9.7074307751   -2.0666505936
     C     8.1526701399  -10.8456869572   -1.8405583682
     C     8.8908930605  -10.9851280575   -0.6614952204
     O     9.6561346880  -12.0759079350   -0.4312484513
     O     8.2676755998  -11.8846418306   -2.7054110032
     H     0.4330401166   -1.7303527074    3.0061924213
     H     0.7102867749   -1.7177905240    1.2583586092
     H     0.5800441078   -0.1908452277    2.1459510497
     H     2.8192786591   -2.2679628308    2.5214384943
     H     2.7066927247   -0.7482264158    3.3979471548
     H     2.9060030075    0.5482264642    1.3538182856
     H     2.9361814903   -0.8913048832    0.3450998510
     H     3.8308910158   -2.8490544265    0.4340443120
     H     5.0248277102   -4.9650404395    0.4758087341
     H     8.2884091776   -3.0905570269    2.5645821556
     H     3.9998346340    1.5459150602   -0.1022086580
     H     5.3167815027    3.5827103686   -0.4616739298
     H     7.5456137254    3.8535421945    0.6206877170
     H     8.4249734818    2.0317606777    2.0708931226
     H     8.4751010661   -5.3597866009    2.1162323302
     H     6.3082537233   -6.7127493030    0.4219235590
     H     8.7921481088   -7.3667478437    3.0995394118
     H     6.7313008347   -7.8214704549   -1.3071749710
     H     6.8203404569   -9.6159536365   -2.9958914395
     H     9.5853509573  -12.6523841252   -1.2104004918
     H     7.7559999205  -11.7094033859   -3.5092332813
