46
-1.4057093172647085e+03 frame 152   xyz file generated by TeraChem
     C    -1.4593851058   -0.2031959817    0.1402105780
     N    -0.0054009027   -0.1520761585   -0.0415484832
     C     0.7190446010    0.7234781115    0.6910152449
     C     2.0796519373    0.8261821834    0.5377930073
     C     2.7563135978    0.0110931997   -0.3910250716
     C     1.9648150101   -0.8867789385   -1.1327943569
     C     0.6047191777   -0.9484854029   -0.9422078920
     C     4.1870663679    0.0411518820   -0.6184645845
     C     5.0627479985    0.8299995733    0.0437933552
     C     6.5014604289    0.8824257575   -0.1539174017
     C     7.1885530998    0.0852848734   -1.0920862062
     C     8.5589958381    0.1776964985   -1.2345885056
     C     9.3126480712    1.0716161708   -0.4463229737
     C     8.6278970182    1.8651820086    0.4883460017
     C     7.2524941721    1.7728155151    0.6314269286
     C    10.7575418622    1.2103617601   -0.5530547459
     C    11.5660567500    0.5409331504   -1.4003666470
     C    12.9996480882    0.6967752356   -1.4860927362
     N    13.7228253726    0.0158438860   -2.3310428873
     C    15.0557023448    0.3384227777   -2.2232313027
     C    15.3668967131    1.3142239129   -1.2484113057
     S    13.9028268916    1.8193036904   -0.4575748765
     C    16.6768131113    1.7379267170   -1.0296999126
     C    17.6816763812    1.1685775436   -1.8031444063
     C    17.3886048408    0.1978046451   -2.7744370225
     C    16.0857373351   -0.2219394865   -2.9919045711
     I    -0.5332611334   -0.2044822164    4.2941595471
     H    -1.9117516088    0.6693797128   -0.3366551659
     H    -1.6774273497   -0.2004125484    1.2108926945
     H    -1.8422929652   -1.1157694443   -0.3145121426
     H     0.1639508926    1.3208886775    1.4044628842
     H     2.6054150926    1.5457445147    1.1541837173
     H     2.4178746693   -1.5469507745   -1.8650310956
     H    -0.0317755617   -1.6282666148   -1.4962743600
     H     4.5415424420   -0.6431110111   -1.3859850008
     H     4.6911649864    1.5065597142    0.8121060140
     H     6.6420671789   -0.6158318925   -1.7156611447
     H     9.0539797067   -0.4531420121   -1.9667268166
     H     9.1895590353    2.5610944942    1.1066833825
     H     6.7428768091    2.3966221570    1.3618388029
     H    11.1965401675    1.9351987324    0.1332344221
     H    11.1726922597   -0.1893311886   -2.1036550518
     H    16.9076571713    2.4883403662   -0.2796091897
     H    18.7107674514    1.4819905870   -1.6513547604
     H    18.1957863229   -0.2287721672   -3.3632276216
     H    15.8472271327   -0.9719239251   -3.7404031021
