55
-1.2809531361062395e+03 frame 51   xyz file generated by TeraChem
     C     0.9414917327   -2.1219602463    1.2470550606
     C     2.3671273543   -2.5798860895    1.0544639929
     O     3.2088252859   -1.4398353795    1.2867090734
     C     4.5291337676   -1.6113472378    1.2001665087
     N     5.0211135750   -2.7935909447    0.8940956271
     C     6.3597933603   -2.9354908595    0.8253466894
     C     7.2252552834   -1.8636519060    1.0373276989
     C     6.7254823008   -0.5975983201    1.3638399710
     C     5.3267157331   -0.4700122009    1.4679779287
     C     4.6764115757    0.7232946620    1.8846694042
     N     4.1157169302    1.6802616212    2.2370330988
     C     7.6509932100    0.5261928362    1.5737281569
     C     7.3831323901    1.8177428291    1.0941673549
     C     8.2815034224    2.8547314372    1.2698029358
     C     9.5031872942    2.6605369492    1.9481277596
     C     9.7670221454    1.3654588286    2.4362919155
     C     8.8676143743    0.3283327454    2.2387273610
     N    10.4174412618    3.7000201474    2.0802920665
     C     9.9188449552    5.0406207642    2.3755689206
     C    10.9843731407    6.0785856314    2.0753192802
     O    12.1747601410    5.8193858082    2.7923000082
     C    12.6748797838    4.5494518464    2.4296432931
     C    11.6864939333    3.4367548435    2.7391551953
     C     6.8565689253   -4.2835045270    0.4816244606
     C     6.0094550634   -5.2022451383   -0.1495321078
     C     6.4623642820   -6.4717904957   -0.4876205964
     C     7.7697075434   -6.8747512043   -0.2002019573
     C     8.6111763517   -5.9579949312    0.4424670360
     C     8.1675077353   -4.6861803098    0.7767676020
     C     8.2629723346   -8.2465046907   -0.5628059455
     H     0.2614825407   -2.9633732854    1.0810577179
     H     0.6875255520   -1.3269398091    0.5391602174
     H     0.7866965622   -1.7469800959    2.2634323734
     H     2.5433665022   -2.9512925128    0.0396093893
     H     2.6413038330   -3.3739779775    1.7562855203
     H     8.2930405579   -1.9851390594    0.8988574986
     H     6.4724892790    2.0119426522    0.5353168600
     H     8.0414419113    3.8208628835    0.8389810862
     H    10.6709610838    1.1620214910    2.9989162577
     H     9.1016829170   -0.6504942339    2.6497137700
     H     9.6269769758    5.1123625411    3.4369110619
     H     9.0379711307    5.2613544830    1.7709757724
     H    10.6362707308    7.0696259349    2.3801714724
     H    11.1926824866    6.0929612716    0.9930575444
     H    13.5972796117    4.3938432966    2.9965290903
     H    12.9146836722    4.5341476124    1.3539311644
     H    11.5609191339    3.3414568144    3.8315823301
     H    12.1051021989    2.4996982660    2.3608852339
     H     4.9903559045   -4.9065750610   -0.3779261134
     H     5.7881528416   -7.1651986233   -0.9854580312
     H     9.6293390733   -6.2496054879    0.6911103684
     H     8.8427887934   -4.0123250492    1.2964166444
     H     7.4714435845   -8.8470893908   -1.0202903522
     H     8.6284870876   -8.7816213511    0.3215380195
     H     9.0981800097   -8.1916968440   -1.2714863471
