52
-1.3408275248120690e+03 frame 52   xyz file generated by TeraChem
     C     0.9208451347    1.6914664815    1.8665733385
     C     2.3412588069    1.4425659895    2.3135081487
     O     3.1868455662    1.6876806136    1.1789513357
     C     4.5036745649    1.5469649327    1.3396345579
     N     4.9877766845    1.1670991743    2.5037198202
     C     6.3238689146    1.0458522721    2.6325558785
     C     7.1925177513    1.2758960766    1.5690963245
     C     6.7022324161    1.6841837517    0.3212029860
     C     5.3066449363    1.8446280379    0.2092550671
     C     4.6626249106    2.3479930453   -0.9537631240
     N     4.1046501696    2.7707088574   -1.8834385169
     C     7.6323511928    1.9212021730   -0.7904560424
     C     7.3343525972    1.5690941205   -2.1136012279
     C     8.2410702182    1.7673448739   -3.1429090960
     C     9.5045652120    2.3490217146   -2.9059685326
     C     9.8021895249    2.7042631623   -1.5705483961
     C     8.8957819456    2.4876336218   -0.5505688596
     N    10.4024701734    2.6182569120   -3.9227127364
     C    10.0693354642    2.3903538160   -5.3203687588
     C    10.5803829651    1.0351329737   -5.7890134779
     O    11.9809062243    0.9441673785   -5.5911896336
     C    12.3154544163    1.1292533418   -4.2291592543
     C    11.8408688060    2.4856221469   -3.7172193536
     C     6.8127163504    0.6264761790    3.9630154301
     C     5.9456886204   -0.0309613567    4.8473389151
     C     6.3756615970   -0.4379818508    6.1029259863
     C     7.6860448429   -0.1718228441    6.4745657209
     C     8.5722070674    0.4853903479    5.6332567089
     C     8.1275258914    0.8811205877    4.3776339195
     F     8.1050659315   -0.5574258977    7.6906763179
     H     0.2381999187    1.5179362785    2.7043215134
     H     0.6448042250    1.0172610139    1.0499513819
     H     0.7948299596    2.7235256408    1.5251924964
     H     2.4884572049    0.4116673952    2.6515313036
     H     2.6374238226    2.1105426114    3.1287782767
     H     8.2541790868    1.0895820089    1.6796130391
     H     6.3919791965    1.0832534615   -2.3479545047
     H     7.9667102878    1.4290107899   -4.1356209223
     H    10.7403226120    3.1948143477   -1.3330793829
     H     9.1589615403    2.8061315847    0.4548673770
     H    10.5711160747    3.1717391367   -5.9068570144
     H     8.9958033012    2.4980742932   -5.4867220603
     H    10.4055384819    0.8984436267   -6.8604043338
     H    10.0688913197    0.2280282363   -5.2396587222
     H    13.4049961993    1.0516308199   -4.1605911680
     H    11.8646705016    0.3307598377   -3.6165798619
     H    12.3478365826    3.2846202931   -4.2734999239
     H    12.0981381244    2.5942195985   -2.6631197973
     H     4.9246636965   -0.2244403480    4.5357248742
     H     5.7137766627   -0.9547168642    6.7907663032
     H     9.5849986158    0.6884957513    5.9660654283
     H     8.8119765255    1.4186562734    3.7284131975
