56
-1.3560827575378244e+03 frame 39   xyz file generated by TeraChem
     C     0.8712025624    0.5574395328   -1.5575897935
     C     2.2711019051    0.9656494689   -1.9486173018
     O     3.1529996347   -0.0725025588   -1.4976374376
     C     4.4620267158    0.0750491814   -1.7125905801
     N     4.9145257206    1.1566541958   -2.3098603965
     C     6.2434923197    1.2729132788   -2.5142991568
     C     7.1380953825    0.2912425892   -2.0875528617
     C     6.6796163843   -0.8697387081   -1.4553834929
     C     5.2870090128   -0.9919052017   -1.2757525018
     C     4.6625784538   -2.1512507806   -0.7416682406
     N     4.1193637911   -3.0923309281   -0.3243602735
     C     7.6348021908   -1.8945281192   -1.0115207138
     C     7.4937578266   -2.5761810542    0.2041530149
     C     8.4174089306   -3.5214236137    0.6206768181
     C     9.5332352334   -3.8581751221   -0.1755275594
     C     9.6764389499   -3.1636878807   -1.3986142713
     C     8.7592053265   -2.2073989682   -1.7927990097
     N    10.4215176817   -4.8560031556    0.1823752652
     C    10.2403769425   -5.6513853984    1.3870185423
     C    11.0629193708   -5.0870856505    2.5372880062
     O    12.4329600542   -5.0374811864    2.1793570712
     C    12.6344928765   -4.2492699419    1.0214590221
     C    11.8357533705   -4.7841770947   -0.1632953058
     C     6.6959162046    2.5061796111   -3.1840256966
     C     5.8313980962    3.6007998832   -3.2994534884
     C     6.2257723911    4.7847375084   -3.9120290127
     C     7.5182445259    4.8935041656   -4.4353752556
     C     8.3937749211    3.8025525485   -4.3396169057
     C     7.9870426306    2.6327334728   -3.7253254607
     O     8.0123846297    5.9920907987   -5.0460539723
     C     7.1598412170    7.1147930474   -5.1880541600
     H     0.1615956865    1.3232897167   -1.8862865093
     H     0.7855982875    0.4498158270   -0.4718900637
     H     0.5954127858   -0.3929645378   -2.0250196115
     H     2.5647947981    1.9121006989   -1.4827523918
     H     2.3772866207    1.0775221209   -3.0328627467
     H     8.2061424462    0.4376878717   -2.1938938008
     H     6.6689783843   -2.3354337449    0.8682426861
     H     8.2780654876   -3.9762389828    1.5945203426
     H    10.4937702226   -3.4018565296   -2.0708473984
     H     8.8945335682   -1.7196626890   -2.7548147665
     H    10.6020775542   -6.6649813065    1.1677624359
     H     9.1831956835   -5.7336282611    1.6441107230
     H    10.9934920900   -5.7290522823    3.4206152255
     H    10.7036054667   -4.0792339222    2.8021560610
     H    13.7073217421   -4.2758307426    0.8071513926
     H    12.3380550826   -3.2053851945    1.2181248567
     H    12.1850840798   -5.7947899987   -0.4120081190
     H    11.9980978982   -4.1506515169   -1.0356085177
     H     4.8292190730    3.5197533699   -2.8907542049
     H     5.5259929151    5.6112817402   -3.9710009657
     H     9.3896511406    3.8950704757   -4.7627904435
     H     8.6837376781    1.8006827487   -3.6893412333
     H     7.7473712764    7.8723035751   -5.7083040523
     H     6.8465257421    7.5026411436   -4.2115278052
     H     6.2730072817    6.8670193679   -5.7831560867
