49
-1.5623820999100385e+03 frame 68   xyz file generated by TeraChem
     C     0.7923998029    1.3619511903    1.7721870784
     C     2.1541798838    0.8587145719    2.1859542902
     O     3.0919880523    1.3309271426    1.2066565078
     C     4.3846132735    1.0618825164    1.3931922484
     N     4.7666861285    0.3556690427    2.4357437313
     C     6.0862129404    0.1217544684    2.5939462483
     C     7.0398035771    0.5881357684    1.6913488901
     C     6.6534895993    1.3347404777    0.5725713197
     C     5.2757032978    1.5902942810    0.4231661857
     C     4.7394641550    2.4095312882   -0.6065223745
     N     4.2725392226    3.0870052269   -1.4297477756
     C     7.6662589553    1.8179189603   -0.3754753854
     C     7.4658106343    1.8047928083   -1.7616800290
     C     8.4451327116    2.2333473448   -2.6432434153
     C     9.6841017473    2.7294544395   -2.1824443407
     C     9.8840720009    2.7368155164   -0.7828110660
     C     8.9078384209    2.2848715544    0.0854316517
     N    10.6407762369    3.2391174599   -3.0412504692
     C    10.4352990751    3.2750929494   -4.4817174124
     C    11.0422650003    2.0454222526   -5.1427407314
     O    12.4266434896    1.9653109835   -4.8499686546
     C    12.6541378603    1.9168049892   -3.4537380946
     C    12.0659040508    3.1350909525   -2.7490830677
     C     6.4462988026   -0.6659918410    3.7683211569
     C     5.5849731488   -1.2120420007    4.6927863018
     C     6.2481277891   -1.9229255563    5.7238449717
     C     7.6089214279   -1.9119735516    5.5771247405
     S     8.0938401804   -1.0351326735    4.1818253108
     H     0.0426167681    1.0230863366    2.4940263973
     H     0.5176669094    0.9804281736    0.7838965501
     H     0.7741292902    2.4556996902    1.7415126988
     H     2.1932391518   -0.2352276467    2.2176116155
     H     2.4480025835    1.2347625696    3.1712970871
     H     8.0889058562    0.3465692398    1.8267468952
     H     6.5423504991    1.4083844090   -2.1734079960
     H     8.2418801524    2.1500737534   -3.7043864891
     H    10.8006511187    3.1347351080   -0.3612061697
     H     9.0994610408    2.3344592696    1.1543759465
     H    10.9515430901    4.1656450228   -4.8638101014
     H     9.3774156906    3.3865594546   -4.7240571797
     H    10.9556182681    2.1017302134   -6.2320387141
     H    10.5272011741    1.1360561544   -4.7923419244
     H    13.7389908245    1.8775379712   -3.3150782786
     H    12.2100230190    1.0008581826   -3.0299935227
     H    12.5595084359    4.0440722734   -3.1163969339
     H    12.2493389429    3.0680393045   -1.6764438799
     H     4.5100853847   -1.0971181925    4.6169662263
     H     5.7403303715   -2.4232884623    6.5412857201
     H     8.3584959144   -2.3696314403    6.2104708138
