54
-1.6777962548287555e+03 frame 60   xyz file generated by TeraChem
     C     0.9722166564    1.0619535796    0.5394255289
     C     2.2785349542    1.3509007710    1.2382830152
     O     3.2973946002    1.3850297461    0.2262144561
     C     4.5517228457    1.6208474551    0.6109783989
     N     4.8315410690    1.8115706324    1.8821315514
     C     6.1080115185    2.0343766699    2.2392949867
     C     7.1656734442    2.0629869505    1.3165716709
     C     6.8758288922    1.8606628891   -0.0454050131
     C     5.5342154570    1.6437908273   -0.4055853649
     C     5.1361143822    1.3827238029   -1.7465978219
     N     4.7791702628    1.1586641587   -2.8307363359
     C     7.9257119586    1.8532800068   -1.0869791143
     C     9.0084338686    0.9651316321   -1.0231969834
     C     9.9754045682    0.9331866837   -2.0135413560
     C     9.9168621756    1.8037412537   -3.1221821742
     C     8.8264931868    2.6929691968   -3.1822145679
     C     7.8575807138    2.7117601946   -2.1879274799
     N    10.9212678146    1.8002379850   -4.0875048269
     C    11.5023087013    0.5188082218   -4.4804347383
     C    12.7955574172    0.7333128107   -5.2446638162
     O    12.5952624242    1.5541658356   -6.3769300206
     C    12.1215359207    2.8170052944   -5.9579891490
     C    10.7990037000    2.7110913908   -5.2158545767
     C     8.5670975170    2.2856988759    1.8099590353
     S     8.6540704805    3.6300812371    3.0252824213
     C     7.4389657267    3.0088556294    4.1461364379
     C     6.3311408942    2.2747665605    3.6783045226
     C     5.3869095795    1.8222889998    4.6110938036
     C     5.5202927369    2.1014973128    5.9636765516
     C     6.6052189143    2.8561674646    6.4101408635
     C     7.5611698218    3.3046207747    5.5057953471
     H     0.1634912652    1.0264281928    1.2760466572
     H     1.0118827526    0.0986666923    0.0217232016
     H     0.7396023526    1.8421050946   -0.1919899601
     H     2.5310732865    0.5764834482    1.9699022858
     H     2.2615706420    2.3142702617    1.7581202935
     H     9.0884088207    0.2718375366   -0.1895247487
     H    10.7956768028    0.2321822336   -1.9067963392
     H     8.7128038730    3.3710249664   -4.0196033502
     H     7.0333001510    3.4149262804   -2.2736650729
     H    10.7949118709   -0.0447782057   -5.1120438333
     H    11.7207985513   -0.0866292513   -3.5996363042
     H    13.1763625025   -0.2258217253   -5.6070773033
     H    13.5496927713    1.1857458935   -4.5801444751
     H    11.9924337318    3.4267728805   -6.8565915444
     H    12.8688252869    3.2996962552   -5.3074031355
     H    10.0069125372    2.3836557460   -5.9112237551
     H    10.5397499829    3.7095045622   -4.8518809084
     H     9.2328592037    2.5761258776    0.9950029588
     H     8.9755903679    1.3782187331    2.2706751946
     H     4.5386350794    1.2523787290    4.2462150999
     H     4.7796363956    1.7352710530    6.6687478131
     H     6.7168476286    3.0848563949    7.4665146475
     H     8.4171233293    3.8769936208    5.8527112359
