72
-1.5742376637792017e+03 frame 67   xyz file generated by TeraChem
     C     2.3652589609    0.4949084602    0.4910668555
     C     3.6026586525   -0.3410816453    0.7866493068
     N     4.6172385726   -0.2319606894   -0.2505096829
     C     4.7020378383   -1.1148063619   -1.3332754246
     C     3.8590444746   -2.2112425089   -1.6024782800
     C     4.1316312807   -2.9624617558   -2.7195182092
     C     5.2172143088   -2.6556011825   -3.5799220914
     C     6.0599870201   -1.5285469262   -3.2955772376
     C     5.7633540805   -0.7630304503   -2.1419489932
     C     6.4307557466    0.4674336627   -1.5601088510
     C     5.5734428189    0.7329001054   -0.3254189956
     C     5.6631242544    1.7448340482    0.6189564649
     C     6.5511898261    2.8116595538    0.7643084500
     C     6.5128032379    3.8058478192    1.8439748748
     O     5.7670251661    3.9454303967    2.8150691430
     C     7.6800529126    4.4932546155    1.2691000118
     C     8.5637335516    5.5667693567    1.3985242122
     C     8.6624440349    6.5793374998    2.3382949797
     N     9.6449136737    7.5219776880    2.2694938739
     C    10.6707699173    7.6044813701    1.2421415383
     C    10.1961984856    8.3512338084    0.0024734447
     C     9.5206005811    8.4694272176    3.2924458823
     C     8.4364389771    8.1252913609    4.0993631554
     C     7.7885592208    6.8735091199    3.5555519257
     C     6.3331747526    7.1533996068    3.1440359737
     C     7.8561438050    5.7288156438    4.5801014578
     C     8.1160760352    8.9066666903    5.1966911274
     C     8.8918505090   10.0384479879    5.4707621040
     C     9.9672983556   10.3732620663    4.6482244990
     C    10.3016724353    9.5932053569    3.5392643077
     C     7.7220246131    3.4981224998    0.1940269773
     O     8.4715740194    3.3581873194   -0.7745610420
     C     6.3483027806    1.6635884561   -2.5262341301
     C     7.8808810687    0.1742192877   -1.1280118787
     C     7.1344536734   -1.2557711164   -4.1858677581
     C     7.3618303883   -2.0478890240   -5.2856485696
     C     6.5305519742   -3.1562368615   -5.5625460486
     C     5.4819476937   -3.4485897205   -4.7245791903
     H     1.6405728440    0.3836361060    1.3039314224
     H     1.8891828604    0.1737807353   -0.4411709168
     H     2.6208215465    1.5552042243    0.4013404462
     H     3.3435750658   -1.3987859759    0.8802313685
     H     4.0589862201   -0.0514934401    1.7370065519
     H     3.0186204303   -2.4565499343   -0.9614385063
     H     3.5042869278   -3.8162757389   -2.9628213956
     H     4.9105673010    1.7338582612    1.4056877842
     H     9.2971029098    5.5842993743    0.5938552203
     H    10.9885199758    6.5878741046    0.9951769296
     H    11.5370961811    8.1008816189    1.6872669986
     H     9.3304431062    7.8534817101   -0.4447436500
     H    10.9985726402    8.3824796509   -0.7413344360
     H     9.9151349455    9.3795508401    0.2513358623
     H     6.2847568618    7.9353744720    2.3793057986
     H     5.7735487499    7.4962048233    4.0214941507
     H     5.8606379971    6.2409733413    2.7723916495
     H     8.8931798648    5.4967078283    4.8440404275
     H     7.3652700566    4.8368157706    4.1832992556
     H     7.3298113120    6.0320066589    5.4922166357
     H     7.2745834695    8.6475791701    5.8347516991
     H     8.6527767427   10.6622876322    6.3272586551
     H    10.5585025023   11.2580755253    4.8678615279
     H    11.1353164059    9.8680494809    2.9006748543
     H     5.3049175330    1.9079451518   -2.7513520156
     H     6.8501821674    1.4230258606   -3.4676297522
     H     6.8462966946    2.5318602208   -2.0893672774
     H     7.9064718781   -0.6281923041   -0.3836276179
     H     8.3377534950    1.0764907258   -0.7152124969
     H     8.4768269266   -0.1432329645   -1.9884854199
     H     7.7867281580   -0.4109193282   -3.9964692594
     H     8.1907799969   -1.8184678319   -5.9499326521
     H     6.7234189708   -3.7726279628   -6.4361733204
     H     4.8338104407   -4.2986871585   -4.9258826857
