83
-1.8847586614819029e+03 frame 71   xyz file generated by TeraChem
     C     0.4931733532   -0.0493432008    0.2577857461
     C     1.9127517670    0.5138344134    0.4338885730
     C     2.7823955472   -0.5805799448    1.0616837612
     C     3.0303036018   -1.7594958686    0.3385938177
     C     3.7815169053   -2.7944665782    0.8668147525
     C     4.3264667348   -2.6826730052    2.1530561682
     C     4.1040274774   -1.5197411152    2.8875051329
     C     3.3353757366   -0.4885101050    2.3366597522
     O     5.0483160620   -3.7521661024    2.5847142994
     C     5.6804196482   -3.6498812973    3.8582078198
     C     6.4511195915   -4.9142346493    4.1174794191
     C     7.6871335389   -5.0997817105    3.4612788498
     C     8.2003596440   -4.1652142140    2.5089114781
     C     9.4064787532   -4.3682404224    1.8952263903
     C    10.1881252616   -5.5190810272    2.1867552843
     C     9.7319846551   -6.4427948316    3.0843719003
     C     8.4771340410   -6.2695046305    3.7409727601
     C     8.0011405759   -7.2137208376    4.6513669671
     C     6.7656608412   -7.0627777157    5.2805602204
     C     5.9607693948   -5.8981548322    5.0022921182
     C     4.6866214453   -5.8140530049    5.6488739173
     C     4.2579948504   -6.7858587828    6.5107235713
     C     5.0683976904   -7.9178298113    6.7976165426
     C     6.2861044299   -8.0496072551    6.1938014131
     C     2.5337153532    0.9462413889   -0.8997217346
     C     1.8188856583    0.9977147252   -2.1016991926
     C     2.4130048461    1.4285609819   -3.2822053578
     C     3.7518339163    1.8267090494   -3.2954011021
     C     4.4862995929    1.7864553014   -2.1067513077
     C     3.8723052076    1.3475019249   -0.9364957080
     O     4.2434225396    2.2272040322   -4.4997512327
     C     5.6056883018    2.6438976212   -4.5493635314
     C     5.9396645467    3.0390293339   -5.9607578632
     C     6.6167339068    2.1464955964   -6.8189680606
     C     6.9509223963    0.8043593266   -6.4520489126
     C     7.6219945675   -0.0233759408   -7.3099306831
     C     8.0138070748    0.4244234119   -8.6007491379
     C     7.7030407540    1.6923955115   -9.0016145223
     C     6.9948554431    2.5834589855   -8.1401462848
     C     6.6607481869    3.8703013775   -8.5616692282
     C     5.9481985840    4.7452815114   -7.7410855246
     C     5.5701388212    4.3222595494   -6.4180256892
     C     4.8187217970    5.2399291080   -5.6196458846
     C     4.4861706637    6.4816961319   -6.0884818433
     C     4.8790451457    6.8993862263   -7.3890670704
     C     5.5883822864    6.0506950519   -8.1910983332
     C     1.8041149191    1.7568715304    1.3308067286
     H     0.4720932277   -0.9100893831   -0.4187429921
     H    -0.1897967893    0.7130757289   -0.1343620945
     H     0.1085390335   -0.3760198046    1.2296354034
     H     2.6317316890   -1.8601664530   -0.6682677029
     H     3.9668765232   -3.7015576913    0.2981882206
     H     4.5159478769   -1.3971297396    3.8834266979
     H     3.1772777359    0.4022708522    2.9368980311
     H     4.9296198164   -3.4692617450    4.6324545231
     H     6.3568239880   -2.7851036770    3.8647811640
     H     7.6122893340   -3.2916995869    2.2484263060
     H     9.7711135404   -3.6447802624    1.1708630319
     H    11.1437380247   -5.6600827178    1.6892621478
     H    10.3141312979   -7.3321710428    3.3142057184
     H     8.6039855713   -8.0931791741    4.8696900368
     H     4.0299924263   -4.9763379202    5.4403186501
     H     3.2818882020   -6.6955104706    6.9798508150
     H     4.7108546199   -8.6752840586    7.4896337624
     H     6.9164569723   -8.9134578376    6.3919287761
     H     0.7764852488    0.6960944692   -2.1317706333
     H     1.8499257402    1.4608352969   -4.2107711874
     H     5.5288135526    2.0851379594   -2.0792311843
     H     4.4639669046    1.3091285281   -0.0243175198
     H     6.2555746130    1.8375129851   -4.1966093273
     H     5.7585467397    3.4924455285   -3.8708507140
     H     6.6471210045    0.4196977691   -5.4845134186
     H     7.8543534163   -1.0400556501   -7.0043584770
     H     8.5507747723   -0.2477267039   -9.2643322633
     H     7.9844236533    2.0494576608   -9.9896036777
     H     6.9552935343    4.1951007600   -9.5578059030
     H     4.4817686420    4.9400799807   -4.6329249085
     H     3.9092066086    7.1570379711   -5.4623597237
     H     4.6068947053    7.8907351978   -7.7407489386
     H     5.8901489636    6.3501662295   -9.1920758821
     H     1.3273703352    1.5145313286    2.2879086365
     H     1.1890734809    2.5122196102    0.8303650006
     H     2.7829154817    2.2040253802    1.5342337650
