46
-1.3910718391460096e+03 frame 55   xyz file generated by TeraChem
     C     1.1129248616   -0.7130033375    1.8311193348
     C     2.5601006039   -0.6134011232    1.4598736062
     C     3.2435484785    0.6253017421    1.6045895298
     C     4.5614829738    0.7487314502    1.2811037151
     N     5.2368269311   -0.3406909073    0.8030199914
     C     4.6180505931   -1.5690865051    0.6292020108
     C     3.2608648152   -1.6954759577    0.9722974001
     C     5.5876418864   -2.4870576073    0.1477482651
     C     5.2683857917   -3.9025095732   -0.0691353603
     O     4.1308534659   -4.2465863866   -0.3802292877
     C     6.3182877520   -4.9613088598    0.0762390365
     C     6.3975974115   -5.9159680376   -0.9373810569
     C     7.3507138004   -6.9283547965   -0.8884436059
     C     8.2275952698   -7.0056213282    0.1903954600
     C     8.1412741378   -6.0740603263    1.2210046960
     C     7.1884409695   -5.0521121288    1.1759431130
     C     7.0098279238   -4.1615548372    2.3602038088
     O     5.9236544108   -3.8545815334    2.8016169757
     O     8.1215865057   -3.7261461421    2.9703531216
     C     6.7915803767   -1.7592578609    0.0212934900
     C     6.5631233650   -0.4432462801    0.4266012043
     C     7.5405759294    0.6154642266    0.4582427227
     O     7.2967479456    1.7633945897    0.8368241398
     C     8.9019676499    0.2125090708    0.0037094426
     C     9.1632291893   -1.0833746342   -0.4802481994
     C     8.0922375927   -2.1170345088   -0.5765090691
     O     8.2857449429   -3.1787887200   -1.1512951348
     C    10.4492011109   -1.4135224238   -0.9070340953
     C    11.4738454457   -0.4736297032   -0.8444360325
     C    11.2141438809    0.8092357122   -0.3635609025
     C     9.9310116594    1.1508785596    0.0548518395
     H     0.9661812420   -0.4570987686    2.8871786675
     H     0.7251287586   -1.7208053179    1.6620409914
     H     0.5135174186   -0.0066301402    1.2447064479
     H     2.7189957185    1.4975585841    1.9815742151
     H     5.1432794101    1.6556146759    1.3720882872
     H     2.7847065145   -2.6584452322    0.8318939952
     H     5.7148195760   -5.8429089483   -1.7786928658
     H     7.4071393446   -7.6573913329   -1.6918333663
     H     8.9674417130   -7.7990732913    0.2415182630
     H     8.7936009066   -6.1714500086    2.0854176316
     H     8.9155810773   -3.9607482630    2.4605434334
     H    10.6314562663   -2.4149804704   -1.2848187294
     H    12.4744569501   -0.7407834028   -1.1721981520
     H    12.0120112858    1.5450366568   -0.3164510920
     H     9.7100486108    2.1469996050    0.4257312801
