50
-1.6047963688652108e+03 frame 77   xyz file generated by TeraChem
    Cl     1.4134537829    0.0584791872   -0.1799610010
     C     3.1647843442    0.0585600748   -0.1790216625
     N     3.7186795218   -1.1371371990   -0.1767168823
     C     5.0736441687   -1.1360158143   -0.1759439504
     C     5.7355480204   -2.3878117214   -0.1733852263
     C     6.3310536615   -3.4514918978   -0.1710921728
     C     7.0219637914   -4.6834479007   -0.1684086645
     C     8.4299287126   -4.7254144731   -0.1657326350
     C     9.1125793566   -5.9250007972   -0.1630865500
     C     8.4177670582   -7.1608315438   -0.1629183967
     C     7.0007618213   -7.1145502504   -0.1657609881
     C     6.3280268539   -5.9092611878   -0.1683536510
     N     9.0869669844   -8.3483862148   -0.1601144915
     C     8.3529599662   -9.5960869350   -0.1609205246
     C    10.5343997371   -8.3681343874   -0.1586610624
     C     5.7995991970    0.0587038998   -0.1775697042
     C     5.0735013108    1.2533555985   -0.1799909019
     N     3.7185542831    1.2543409843   -0.1807189677
     C     5.7353009421    2.5052072691   -0.1817862120
     C     6.3310863409    3.5687403828   -0.1834657407
     C     7.0218128718    4.8007835563   -0.1854152338
     C     6.3276902138    6.0264984738   -0.1866910309
     C     7.0002548995    7.2318811050   -0.1884614735
     C     8.4172603346    7.2783691361   -0.1890980790
     C     9.1122522639    6.0426460463   -0.1879175050
     C     8.4297704561    4.8429601511   -0.1861133491
     N     9.0862978478    8.4660182526   -0.1907731019
     C    10.5337280157    8.4859564227   -0.1911600996
     C     8.3521339197    9.7136254564   -0.1918923040
     H     8.9882131869   -3.7934947752   -0.1657985951
     H    10.1962625719   -5.9084077259   -0.1611440690
     H     6.4250343934   -8.0328202100   -0.1659791124
     H     5.2417351380   -5.9038074758   -0.1705030114
     H     7.7129854963   -9.6903030835    0.7264856963
     H     9.0606728999  -10.4253830383   -0.1578356813
     H     7.7181017903   -9.6924064536   -1.0518047762
     H    10.9472183079   -7.8742197973   -1.0483221760
     H    10.8758367876   -9.4035905755   -0.1565967753
     H    10.9453597966   -7.8714333637    0.7302889989
     H     6.8827598128    0.0587785125   -0.1769576213
     H     5.2413975318    6.0208782205   -0.1862356019
     H     6.4243925859    8.1500663654   -0.1894010028
     H    10.1959393918    6.0262038663   -0.1884490411
     H     8.9881992719    3.9111268864   -0.1852221361
     H    10.9458960656    7.9917661944    0.6986407437
     H    10.8750263635    9.5214583735   -0.1925132734
     H    10.9454656629    7.9896329540   -1.0799721013
     H     7.7142457326    9.8077521049   -1.0808236497
     H     9.0597490903   10.5430113155   -0.1932758853
     H     7.7151666378    9.8098823587    0.6974746591
