49
-1.5544890262135359e+03 frame 38   xyz file generated by TeraChem
    Cl    -1.9729699361    0.3209879669   -1.3497595066
     C    -0.2823870087    0.2496222894   -0.9234263467
     C     0.3857988308   -0.9690811716   -0.9802145029
     C     1.7342938132   -1.0135906746   -0.6431171424
     C     2.4157874354    0.1369842424   -0.2315143370
     C     1.7187019308    1.3503157936   -0.1937696224
     C     0.3741446790    1.4152927353   -0.5394752399
     C     3.8732643297    0.0674360541    0.0534150452
     N     4.5657232855   -0.6359999583   -0.8546488858
     C     5.8883024602   -0.7006236853   -0.7628296708
     C     6.6156298723   -1.4772833052   -1.8248760196
     C     7.8889513997   -0.7354064760   -2.2234793252
     C     8.7393576178   -0.5244974844   -1.0007902851
     C     8.1039054674   -0.2018713436    0.2182653034
     C     6.6336086815   -0.0221997792    0.2252976904
     C     5.9189315958    0.7784275850    1.1314530655
     C     4.5050117403    0.7461928434    1.1117026869
     C     3.7838146665    1.4024717610    2.2272625988
     C     2.6034711759    0.8808425612    2.7732130732
     C     1.9801968469    1.5081772361    3.8466073594
     C     2.5329379541    2.6631592906    4.3977695829
     C     3.7277587262    3.1657910777    3.8886765137
     C     4.3635185455    2.5395234937    2.8181876659
     C     5.6989943879    2.9764791322    2.2924126943
     C     6.5758136656    1.7409583019    2.0910758021
     C     8.8839315476   -0.1380520626    1.3815680832
     C    10.2634270914   -0.3171825928    1.3350288517
     C    10.8902217864   -0.5767995421    0.1198214478
     C    10.1218088605   -0.6928637447   -1.0361586028
     H    -0.1389386950   -1.8682491238   -1.2871289850
     H     2.2708930265   -1.9558500111   -0.6999371678
     H     2.2340921088    2.2605592796    0.0972487004
     H    -0.1570850353    2.3614310252   -0.5171979624
     H     5.9453021261   -1.6202549731   -2.6768256463
     H     6.8814424383   -2.4740314890   -1.4422480142
     H     7.6195362994    0.2310145117   -2.6751108954
     H     8.4461129790   -1.2980459016   -2.9795642769
     H     2.1767683137   -0.0287091407    2.3624704210
     H     1.0657691172    1.0889451047    4.2576742483
     H     2.0472265026    3.1571481834    5.2351808625
     H     4.1845227416    4.0469291011    4.3340749768
     H     6.1783603853    3.6753276878    2.9855413339
     H     5.5845836652    3.4984276275    1.3311366987
     H     6.7415218987    1.2625529387    3.0673809348
     H     7.5581075329    2.0313496742    1.7071840033
     H     8.4090913197    0.0200348773    2.3434693425
     H    10.8433731821   -0.2641954653    2.2524740896
     H    11.9672357051   -0.7152319067    0.0747802449
     H    10.5983084951   -0.9358741246   -1.9834955213
