42
-1.8719928782865823e+03 frame 51   xyz file generated by TeraChem
    Cl     0.2891356734   -1.4685616276    5.1925689802
     C     1.1889399207   -0.9473506042    3.7968592129
     C     2.4675925326   -0.4260518182    3.9677698055
     C     3.1756304094    0.0019528791    2.8496282591
     C     2.6198005286   -0.1034732081    1.5697666064
     C     1.3416883217   -0.6563710699    1.4251795202
     C     0.6140835737   -1.0669264611    2.5328279765
     C     3.3685275213    0.2656008690    0.3321748828
     O     3.1616298954   -0.3507930520   -0.7067007955
     C     4.3603326490    1.3739672296    0.3604750654
     C     4.2725526645    2.4542530755    1.2482535352
     C     5.1913956712    3.4919294898    1.1902927925
     C     6.2286112704    3.4839936844    0.2441011700
     C     6.3069144029    2.4015129005   -0.6491990315
     C     5.3840067372    1.3710384722   -0.5962450021
     C     7.1888255664    4.5849166498    0.1951099058
     S     8.7512108345    4.4042801350   -0.5426706135
     C     9.1899561676    6.0293507599   -0.1947216217
     C     8.1794386243    6.6859627768    0.4655246582
     C     7.0409092012    5.8580113969    0.6867029463
     N     8.1843057678    8.0119802120    0.8999384598
     C     9.1850900398    8.9202096676    0.7074868608
     O    10.2078114123    8.6620958458    0.0795969671
     C     8.9578460974   10.2767067526    1.3025083901
     C     8.2848358313   10.4395436491    2.4469381338
     C     9.6213248717   11.4007225524    0.5659962977
     H     2.9033870326   -0.3587920895    4.9591916617
     H     4.1794818133    0.3949349285    2.9788317396
     H     0.9203803672   -0.7556692563    0.4294675509
     H    -0.3831463220   -1.4803820351    2.4223705864
     H     3.4707531643    2.4962853305    1.9791372561
     H     5.1127490987    4.3123585455    1.8970165848
     H     7.0870706893    2.3788358428   -1.4058845421
     H     5.4406306809    0.5458409981   -1.2996216491
     H    10.1512413569    6.4204685124   -0.4875168296
     H     6.1370933950    6.2127300117    1.1719721770
     H     7.3355775235    8.3406449591    1.3390342764
     H     7.8618850879    9.6067276016    3.0033058306
     H     8.1621052486   11.4264060116    2.8860684998
     H     9.2335194670   11.4838938410   -0.4564181094
     H    10.6967174074   11.2128118294    0.4802487316
     H     9.4649557615   12.3525072697    1.0799043280
