19
-1.1559861395697772e+03 frame 17   xyz file generated by TeraChem
     C     2.3429764345    0.0943574506   -0.1095730775
     C     0.8701763929   -0.1248982518   -0.0095162503
     C     0.1904379453   -1.3066647879    0.1142600273
     C    -1.2199529693   -1.1515818041    0.1661214070
     C    -1.6255812875    0.1588780474    0.0846404171
     S    -0.2405644296    1.2090086529   -0.0486215210
     C    -2.9668154267    0.7009177307    0.0989894630
     C    -3.4008961383    1.9508779226   -0.2768586571
     C    -4.8014997215    2.1409879249   -0.1328035664
     C    -5.4098346922    1.0234755046    0.3539131283
     S    -4.3066969251   -0.2685749829    0.6569181947
    Br    -7.2856847181    0.7934155336    0.6926065777
     H     2.8594914550   -0.8670831975   -0.0387458695
     H     2.7150716059    0.7413588118    0.6931675750
     H     2.6208936288    0.5598364770   -1.0625238471
     H     0.6938301120   -2.2674469986    0.1584028482
     H    -1.9142896453   -1.9827379852    0.2443732650
     H    -2.7348331806    2.7154509594   -0.6637367969
     H    -5.3280465840    3.0538329701   -0.3848236627
