49
-1.1327445075703718e+03 frame 44   xyz file generated by TeraChem
    Br    -1.8080190933   -0.3094893221    2.4101977378
     C    -0.0172050679   -0.4488984704    1.6398843639
     C     0.6078514692   -1.6877819727    1.6087673059
     C     1.8854976806   -1.7739041658    1.0629632073
     C     2.5399275329   -0.6374217997    0.5768390229
     C     1.8721018863    0.5918789207    0.6120700998
     C     0.5894359473    0.6962998686    1.1402468535
     C     3.8811217235   -0.7681651560   -0.0513098835
     N     3.9710073064   -1.7762656128   -0.9299577211
     C     5.0885461129   -1.9374473059   -1.6278663478
     C     5.1245240379   -3.0634358795   -2.6226302246
     C     5.8170272346   -2.5977057985   -3.9006916653
     C     7.1963278633   -2.1052472932   -3.5580988369
     C     7.3814967356   -1.3770716228   -2.3627703785
     C     6.1961957662   -1.0682973788   -1.5319344587
     C     6.0818742975    0.0291552647   -0.6629547685
     C     4.9417147127    0.1303666419    0.1665502395
     C     4.9493452309    1.1564516466    1.2331922786
     C     4.3593655227    0.9455015027    2.4851060345
     C     4.4067845827    1.9191943132    3.4764478498
     C     5.0656221253    3.1098561534    3.2025693561
     C     5.7029588653    3.3363406136    1.9916469360
     C     5.6552383806    2.3509841503    1.0066924287
     C     6.3863256337    2.4823406899   -0.2962510248
     C     7.0824188027    1.1580609171   -0.6096095188
    Br     5.1171772574    4.4987382003    4.5772798270
     C     8.6874469501   -1.0414528810   -1.9825057797
     C     9.7831254841   -1.3408612256   -2.7867914408
     C     9.5574200244   -1.9999988042   -3.9848425264
     C     8.2869655138   -2.4006978604   -4.3725352854
    Br    11.0741447593   -2.4182967850   -5.1457585028
     H     0.1121607849   -2.5715006724    1.9964837740
     H     2.3851211404   -2.7368853176    1.0164213358
     H     2.3512139267    1.4802178938    0.2110992572
     H     0.0768232426    1.6524891843    1.1531816656
     H     4.1007588729   -3.3948526228   -2.8156225344
     H     5.6753299043   -3.9171254620   -2.2009623652
     H     5.2291557361   -1.7898739048   -4.3605870911
     H     5.8753461373   -3.4097749070   -4.6319773601
     H     3.8615032390    0.0058644847    2.7008474668
     H     3.9449136765    1.7465430724    4.4424508448
     H     6.2410919869    4.2616827993    1.8098462349
     H     7.1176460634    3.2950560446   -0.2499059191
     H     5.6827440310    2.7226041211   -1.1063824010
     H     7.8428416378    0.9661674199    0.1616956197
     H     7.6098691224    1.2315852543   -1.5649864996
     H     8.8708283530   -0.5628939402   -1.0274134295
     H    10.7864259564   -1.0725944894   -2.4738690588
     H     8.1380865414   -2.9549270127   -5.2941431502
