49
-1.1076149986202277e+03 frame 34   xyz file generated by TeraChem
    Br    -1.5767120799    0.3330063572    1.1798403641
     C     0.3415562210    0.2323346067    0.8114717267
     C     1.0923059791    1.3993880959    0.8363784862
     C     2.4574077696    1.3155996836    0.5771932014
     C     3.0627705697    0.0909932792    0.2760442203
     C     2.2744989604   -1.0654159076    0.2720270907
     C     0.9108402002   -1.0049285331    0.5410156561
     C     4.5339133582    0.0308095074    0.0678642358
     N     5.2326295146    0.7369498739    0.9685169959
     C     6.5588177464    0.6917198463    0.9488995012
     C     7.2906636395    1.4829861680    1.9963638962
     C     8.4606207127    0.6618810716    2.5310102805
     C     9.3611499523    0.2891756100    1.3847786134
     C     8.7752136221   -0.0589111450    0.1473391119
     C     7.2974610934   -0.1112244093    0.0530715832
     C     6.5677654305   -0.9032485770   -0.8492009579
     C     5.1621079117   -0.7568744907   -0.9138297183
     C     4.4483568024   -1.4087022953   -2.0366059612
     C     3.3407028916   -0.8235855357   -2.6646362263
     C     2.7244885500   -1.4476649694   -3.7438072550
     C     3.2140285077   -2.6625134711   -4.2209479004
     C     4.3391932803   -3.2315106940   -3.6298188175
     C     4.9660082347   -2.6111295376   -2.5505681212
     C     6.2305595480   -3.1305294821   -1.9331309657
     C     7.1942420314   -1.9633497363   -1.7222157048
     C     9.6179501493   -0.2734911682   -0.9528180693
     C    11.0023950172   -0.2156522049   -0.8228672615
     C    11.5735302241    0.0707281087    0.4135393909
     C    10.7481684956    0.3356082751    1.5039266662
     H     0.6310817149    2.3561889743    1.0576600167
     H     3.0653574945    2.2146826476    0.6078915455
     H     2.7298414763   -2.0296217708    0.0671068374
     H     0.3087458701   -1.9074089362    0.5436712045
     H     6.5862224973    1.7541885714    2.7874658154
     H     7.6737908468    2.4167502552    1.5585311164
     H     8.0730499216   -0.2414553473    3.0251617502
     H     9.0204509027    1.2250268990    3.2847047038
     H     2.9664572370    0.1330545814   -2.3143227810
     H     1.8668706365   -0.9783864162   -4.2183183306
     H     2.7347504882   -3.1532884616   -5.0639297997
     H     4.7482878571   -4.1624319836   -4.0164143503
     H     6.6902574539   -3.8908404091   -2.5729085703
     H     6.0224698431   -3.6064623707   -0.9636130107
     H     7.4626907032   -1.5457635694   -2.7037166036
     H     8.1221013286   -2.3167415793   -1.2631829379
     H     9.1925061756   -0.4549820783   -1.9333275304
     H    11.6314010856   -0.3840391499   -1.6928990684
     H    12.6538090421    0.1148183546    0.5238619998
     H    11.1849122728    0.6001738640    2.4645690317
