52
-1.4569099716027563e+03 frame 36   xyz file generated by TeraChem
    Br     0.9393914409    0.8079364669   -0.9546778136
     C     2.8541258488    0.5605258433   -0.6463282438
     C     3.7392983919    1.5261997408   -1.1048729288
     C     5.0978476926    1.3440757841   -0.8697793822
     C     5.5704782009    0.2227935334   -0.1775032434
     C     4.6520393114   -0.7622927436    0.2272358965
     C     3.2880489846   -0.5859816444    0.0022900684
     C     5.2064059059   -2.0114024073    0.8445791072
     C     6.4397295559   -2.4496806524    0.0542039797
     C     7.4748246423   -1.3524540755    0.0337975729
     C     7.0112849761   -0.0173591998    0.0656012590
     C     7.9498605338    1.0043968958    0.2952883561
     N     9.2647253716    0.7606074757    0.3816608123
     C     9.7076342069   -0.4833288158    0.2477134205
     C     8.8582713719   -1.5933087849    0.0495150543
     C     9.4973824837   -2.9186634043   -0.1170903077
     C     8.9357712137   -3.9438021403   -0.8897113981
     C     9.5678656154   -5.1744276895   -1.0409188864
     C    10.7878722084   -5.3692933195   -0.4128598318
     C    11.4004756672   -4.3658746342    0.3238126004
     C    10.7662408380   -3.1331288980    0.4627657077
     C    11.4402114357   -1.9914188675    1.1722884001
     C    11.1872654821   -0.7058709959    0.3907767968
    Br    11.6982447670   -7.0856674335   -0.6212742496
     C     7.5897312934    2.4236385973    0.5583920596
     C     6.6134232352    2.7639945625    1.5004240606
     C     6.3357530164    4.0964708057    1.7829722329
     C     7.0295524089    5.1034154051    1.1163174589
     C     8.0132164045    4.7784274147    0.1811394643
     C     8.2979460749    3.4463326360   -0.0848245631
     C     6.7597816778    6.5480962822    1.4043882874
     F     5.6704910480    6.7282498093    2.1684689851
     F     7.7946318969    7.1334236869    2.0408204482
     F     6.5686600859    7.2513931360    0.2696498243
     H     3.3846613635    2.3998301576   -1.6409022978
     H     5.7953822891    2.0862449487   -1.2436591083
     H     2.5810869734   -1.3466287026    0.3187420567
     H     4.4559324522   -2.8077356810    0.8488423403
     H     5.4931927221   -1.8265030373    1.8897306789
     H     6.1316805572   -2.7099079028   -0.9690753867
     H     6.8663778130   -3.3533200209    0.4983795232
     H     8.0042368231   -3.7818357893   -1.4199972980
     H     9.1189736219   -5.9533695020   -1.6477091022
     H    12.3751619257   -4.5258805971    0.7743133950
     H    12.5126745755   -2.1861104799    1.2697022004
     H    11.0361420185   -1.8861318069    2.1897380687
     H    11.6501830789   -0.7857104951   -0.6040049357
     H    11.6256948077    0.1635288326    0.8880342147
     H     6.0724612963    1.9813745735    2.0238629776
     H     5.5811967853    4.3504630365    2.5201319094
     H     8.5527250409    5.5664706585   -0.3366307760
     H     9.0707636313    3.1855668981   -0.8013700702
