49
-1.4303422220483244e+03 frame 44   xyz file generated by TeraChem
     C     1.3625085402   -0.2264071462   -0.1668796679
     C     2.8610283712   -0.2159343909   -0.1694118698
     C     3.5291760417    0.9776965305   -0.1311309725
     N     4.8961431727    1.0070325842   -0.1362073909
     C     5.7411149675    2.1014752209   -0.0967411622
     C     5.3403584388    3.4839486757   -0.0447019626
     O     4.1657373317    3.8601705583   -0.0200993581
     C     6.4718588631    4.4541636713   -0.0077143392
     C     6.1843713229    5.8139769944    0.0955068763
     C     7.2149073469    6.7490732230    0.1326142710
     C     8.5422737363    6.3285371403    0.0593931743
     C     8.8371112408    4.9729050135   -0.0533874829
     C     7.8112194028    4.0283474079   -0.0830184309
     C     8.1706762058    2.5872287901   -0.2240457196
     O     9.3201912859    2.2419692709   -0.4575212975
     C     7.0556950956    1.6282117244   -0.1082508299
     C     7.0261909141    0.2171960765   -0.1551320028
     C     5.6540799305   -0.1490047692   -0.1867958491
     C     4.9841518635   -1.3823325246   -0.2178024433
     C     3.6074525628   -1.4367168935   -0.2094180045
     C     2.8936754786   -2.7525239808   -0.2459947463
     C     8.0900142600   -0.7912187660   -0.1262675294
     O     7.9205115811   -1.8958727503   -0.6370406036
     C     9.4152385856   -0.5027149757    0.5123946063
     C    10.5537688723   -0.8305748994   -0.2232571315
     C    11.8253468782   -0.5905058351    0.2878770834
     C    11.9711009405   -0.0343330023    1.5560276223
     C    10.8424817180    0.2712792798    2.3110837606
     C     9.5621114418    0.0374801671    1.8014237160
     C     8.3747487438    0.2228507169    2.6852199530
     O     7.4495458619   -0.5593143428    2.7230845668
     O     8.3776746473    1.2885224729    3.4988511913
     H     0.9609570093    0.7896921140   -0.1300854870
     H     0.9737668370   -0.7804725840    0.6956981212
     H     0.9711504086   -0.7172234755   -1.0659337596
     H     3.0450190425    1.9444175225   -0.0937290755
     H     5.1453082873    6.1242385710    0.1469022653
     H     6.9823630446    7.8069260618    0.2169448532
     H     9.3476706922    7.0569300219    0.0882670214
     H     9.8651103043    4.6297237816   -0.1195046610
     H     5.5796278056   -2.2861517752   -0.2613190906
     H     3.6027968313   -3.5833422121   -0.2791915308
     H     2.2382624217   -2.8211874423   -1.1228044889
     H     2.2550404897   -2.8780542044    0.6370176038
     H    10.4311873794   -1.2590844711   -1.2136363998
     H    12.7019071299   -0.8409186110   -0.3030017825
     H    12.9601824077    0.1454000864    1.9670445656
     H    10.9631333992    0.6539536778    3.3215474488
     H     9.1217184691    1.8799877084    3.2946683635
