50
-1.1953288537551016e+03 frame 27   xyz file generated by TeraChem
    Br     0.9753070514    0.7460150489   -1.1043886322
     C     2.8883880675    0.4979487048   -0.7794042047
     C     3.7775403262    1.4664505850   -1.2246336091
     C     5.1334479501    1.2858925114   -0.9741123367
     C     5.6007218644    0.1625887895   -0.2809024804
     C     4.6786365790   -0.8248068047    0.1089946577
     C     3.3165340728   -0.6500154174   -0.1302842981
     C     5.2286811402   -2.0761449503    0.7255018749
     C     6.4653173684   -2.5109141715   -0.0613075941
     C     7.5014025693   -1.4138840004   -0.0721663197
     C     7.0404764115   -0.0787441861   -0.0281454546
     C     7.9776464810    0.9438314782    0.2183433620
     N     9.2933492216    0.6921834192    0.2943136520
     C     9.7342857531   -0.5498377546    0.1400266821
     C     8.8846888447   -1.6585731788   -0.0611516882
     C     9.5223961498   -2.9835407753   -0.2362449089
     C     8.9578838741   -4.0072071180   -1.0089836888
     C     9.5887211156   -5.2380647349   -1.1659084740
     C    10.8113602426   -5.4350141110   -0.5441508220
     C    11.4277078164   -4.4331449543    0.1914905346
     C    10.7943079833   -3.2007643890    0.3366470518
     C    11.4727907299   -2.0613674016    1.0456092465
     C    11.2153884796   -0.7735192735    0.2694522837
    Br    11.7204661969   -7.1520005955   -0.7593341233
     C     7.6154492089    2.3539651426    0.5036109160
     C     6.5971749132    2.6863940850    1.4043451767
     C     6.3166972525    4.0111466888    1.7136745223
     C     7.0534308445    5.0378411180    1.1162995548
     C     8.0804494761    4.7233703081    0.2222662513
     C     8.3601117941    3.3952340261   -0.0660467369
     O     6.8210642086    6.3487381231    1.3712644774
     H     3.4275136081    2.3417902020   -1.7610151170
     H     5.8350720190    2.0326595076   -1.3304767247
     H     2.6073380073   -1.4127861144    0.1759818561
     H     4.4777808301   -2.8721898715    0.7241793836
     H     5.5118424361   -1.8945453705    1.7722708155
     H     6.1611141655   -2.7671834684   -1.0868038319
     H     6.8900892564   -3.4166782278    0.3806153685
     H     8.0242182844   -3.8442159538   -1.5350952982
     H     9.1363698190   -6.0153390620   -1.7723206179
     H    12.4044658189   -4.5944954371    0.6370464789
     H    12.5456801127   -2.2571893784    1.1368234743
     H    11.0740543432   -1.9585470521    2.0654775192
     H    11.6708363893   -0.8513476372   -0.7289698061
     H    11.6582132541    0.0941244743    0.7658914757
     H     6.0218845985    1.8990405919    1.8831712596
     H     5.5296656212    4.2523992053    2.4252571300
     H     8.6511292520    5.5279794832   -0.2324062008
     H     9.1693576774    3.1518565579   -0.7485911873
     H     6.0892665105    6.4268611401    2.0017791206
