51
-1.3244842643241404e+03 frame 33   xyz file generated by TeraChem
    Br     1.1103584595    0.8136609153   -1.0214501516
     C     3.0219442927    0.5513528447   -0.7107984211
     C     3.9162888818    1.5064744467   -1.1737628094
     C     5.2730630548    1.3119739178   -0.9380683544
     C     5.7341389569    0.1896051633   -0.2398820225
     C     4.8067449120   -0.7854164690    0.1689957151
     C     3.4448689763   -0.5966710249   -0.0571554150
     C     5.3494544487   -2.0373396940    0.7910313628
     C     6.5795172647   -2.4894836746    0.0032341970
     C     7.6243067782   -1.4017530266   -0.0204257002
     C     7.1716617230   -0.0625388713    0.0060111376
     C     8.1194717685    0.9506863566    0.2316837674
     N     9.4325957814    0.6975899315    0.3177796834
     C     9.8651117416   -0.5500635026    0.1903774082
     C     9.0055385402   -1.6538329327   -0.0033821527
     C     9.6336438334   -2.9849840119   -0.1642992827
     C     9.0641710223   -4.0078496722   -0.9340801660
     C     9.6869137351   -5.2436907382   -1.0814269910
     C    10.9049583549   -5.4461709897   -0.4519002255
     C    11.5245998204   -4.4455199758    0.2827444996
     C    10.9001889606   -3.2074659938    0.4177291539
     C    11.5829067605   -2.0688326169    1.1236434348
     C    11.3424233931   -0.7848139107    0.3356883292
    Br    11.8037897997   -7.1686070444   -0.6563322012
     C     7.7765339731    2.3734136246    0.4948629770
     C     6.7844577189    2.7256445898    1.4207429445
     C     6.5295180037    4.0568421108    1.7131762316
     C     7.2727633810    5.0377226950    1.0630248742
     C     8.2702170155    4.7212732903    0.1464637838
     C     8.5237391463    3.3845022003   -0.1233534734
     N     7.0040525954    6.4381655404    1.3568910687
     O     6.1315213451    6.6973488834    2.1738540094
     O     7.6645161682    7.2846679931    0.7709346135
     H     3.5701248366    2.3805716370   -1.7145097760
     H     5.9779322415    2.0439384606   -1.3187805101
     H     2.7303710688   -1.3488897682    0.2624198331
     H     4.5917964177   -2.8267414237    0.7968580419
     H     5.6365478284   -1.8517853822    1.8359406355
     H     6.2703613441   -2.7504460807   -1.0194649328
     H     6.9980672874   -3.3950847922    0.4510296526
     H     8.1342252639   -3.8402659640   -1.4654118124
     H     9.2324546170   -6.0207652334   -1.6864418526
     H    12.4975358556   -4.6122284136    0.7345410096
     H    12.6534614207   -2.2723124944    1.2235845483
     H    11.1783212889   -1.9553312595    2.1399633458
     H    11.8049350719   -0.8737690404   -0.6584571112
     H    11.7881782972    0.0830829702    0.8289681144
     H     6.2174859926    1.9505427873    1.9264865434
     H     5.7734536389    4.3402261205    2.4359672633
     H     8.8320864066    5.5119069784   -0.3369171017
     H     9.3076673001    3.1112813992   -0.8222776024
