49
-1.1201799148637137e+03 frame 28   xyz file generated by TeraChem
    Br     1.0940320310    0.8790318434   -1.0544297642
     C     3.0067454048    0.6274990052   -0.7317848230
     C     3.8962890174    1.5998284078   -1.1672246099
     C     5.2523741292    1.4149482278   -0.9202066501
     C     5.7188362947    0.2837730164   -0.2397518525
     C     4.7961426216   -0.7065049458    0.1416328409
     C     3.4342783367   -0.5275780336   -0.0946949390
     C     5.3440691201   -1.9639567883    0.7475428383
     C     6.5829000656   -2.3927212608   -0.0389904476
     C     7.6191305452   -1.2960500617   -0.0368096978
     C     7.1579795227    0.0391446153    0.0118261655
     C     8.0953511008    1.0584639498    0.2640808012
     N     9.4094352021    0.8079659833    0.3537894921
     C     9.8509214160   -0.4344772262    0.2021619031
     C     9.0021176819   -1.5405462652   -0.0158141714
     C     9.6405713128   -2.8645439391   -0.1960509612
     C     9.0831878860   -3.8795047147   -0.9850305625
     C     9.7149075810   -5.1091112752   -1.1478182278
     C    10.9307775168   -5.3131180756   -0.5150371224
     C    11.5400322472   -4.3193482122    0.2373804078
     C    10.9060371257   -3.0879853884    0.3882631414
     C    11.5768086768   -1.9560801208    1.1161547750
     C    11.3299244731   -0.6606812882    0.3491618997
    Br    11.8403532722   -7.0287671537   -0.7366038914
     C     7.7338155974    2.4732879913    0.5455623064
     C     6.7431049246    2.8002756777    1.4794646187
     C     6.4674011678    4.1306940862    1.7790616149
     C     7.1721014950    5.1532013682    1.1449405967
     C     8.1658885991    4.8366474949    0.2204721321
     C     8.4523439712    3.5054822655   -0.0684574251
     H     3.5467484130    2.4812763246   -1.6937675502
     H     5.9537930082    2.1642388538   -1.2716913197
     H     2.7243360135   -1.2924307667    0.2044525010
     H     4.5927021715   -2.7594795166    0.7365698528
     H     5.6237029835   -1.7924898004    1.7969552330
     H     6.2822028740   -2.6396132345   -1.0677940682
     H     7.0055849897   -3.3024913178    0.3965364445
     H     8.1549659576   -3.7101310223   -1.5188128884
     H     9.2684252991   -5.8799796047   -1.7666175470
     H    12.5118386595   -4.4861075214    0.6916771094
     H    12.6483354422   -2.1535623883    1.2187377071
     H    11.1656260728   -1.8627004703    2.1319723169
     H    11.7979634760   -0.7288587925   -0.6441020101
     H    11.7667099688    0.2019113181    0.8595650192
     H     6.1950611951    2.0074125847    1.9810600639
     H     5.7028045020    4.3697879895    2.5135265182
     H     6.9517882774    6.1921444395    1.3756944905
     H     8.7234567908    5.6280479387   -0.2736354005
     H     9.2365323913    3.2530959185   -0.7766175089
