68
-2.4207877613780902e+03 frame 71   xyz file generated by TeraChem
     C     0.7903885846   -1.5061174683    0.7272457803
     C    -0.1380647771   -1.3050493392    1.9214308808
     N    -1.5441762314   -1.2041762446    1.5612599558
     C    -2.3866781557   -2.2491340736    1.2772715186
     C    -2.2830500312   -3.6578390767    1.2702866813
     C    -3.4767023429   -4.2494792580    0.9134346395
     S    -4.7445419993   -3.0669461291    0.5889159244
     C    -3.6575630654   -1.7650953161    0.9176394400
     C    -3.5900981186   -0.3700356490    0.9845519313
     C    -2.2675456422   -0.0473128102    1.3743154262
     C    -2.0171454408    1.3211797385    1.4791794968
     C    -3.1487711045    2.0756751850    1.1650526254
     S    -4.5345953278    1.0465275904    0.7653233076
     C    -3.3783594896    3.4798465679    1.1964357130
     C    -2.4994042310    4.5373986541    1.1923231131
     C    -1.0297355423    4.5382011680    0.9689052775
     O    -0.3082403520    5.4184748557    1.3797017601
     O    -0.5090595977    3.5405114430    0.2350417749
     C    -3.0400755807    5.8352348269    1.4239050598
     N    -3.4967156305    6.8896851850    1.6081498856
     C    -3.7718370145   -5.6717453466    0.8072031061
     C    -2.9675996610   -6.6222065421    1.4600524224
     C    -3.2391336956   -7.9768726896    1.3786524226
     C    -4.3358834879   -8.4464507630    0.6359845383
     C    -5.1410954680   -7.5043524857   -0.0242926474
     C    -4.8634955802   -6.1508402235    0.0643609023
     N    -4.6227643326   -9.8151750228    0.5618356371
     C    -5.9621876064  -10.2668716966    0.4614733168
     C    -6.2936703239  -11.2898765921   -0.4343698428
     C    -7.6050413156  -11.7466750064   -0.5178971134
     C    -8.6033180170  -11.1814555392    0.2739703184
     C    -8.2747225207  -10.1575571734    1.1614508820
     C    -6.9629941909   -9.7067793293    1.2645022034
     C    -3.5782145589  -10.7721075387    0.6045944031
     C    -3.6909948376  -11.8995174351    1.4261934409
     C    -2.6714693680  -12.8454861463    1.4570951800
     C    -1.5240336628  -12.6740030209    0.6843963661
     C    -1.4085266531  -11.5481810979   -0.1295851049
     C    -2.4304409310  -10.6054405423   -0.1792414663
     C     0.8007665640   -0.3458993683   -0.2633086353
     C     1.7916436543   -0.5637645383   -1.4007272167
     H     0.5168498866   -2.4350869704    0.2084194675
     H     1.8024052730   -1.6593319374    1.1259555779
     H     0.1236886130   -0.3896494407    2.4619730963
     H    -0.0396844237   -2.1353794908    2.6284768558
     H    -1.3805116424   -4.2171257182    1.4872610517
     H    -1.0795849944    1.7537803700    1.8073569553
     H    -4.4285464472    3.7641293157    1.2533758735
     H    -1.2076650129    2.9658132025   -0.1244285732
     H    -2.1350972573   -6.2926272998    2.0751765049
     H    -2.6103599408   -8.6821495614    1.9129857875
     H    -5.9821358894   -7.8407655082   -0.6221161337
     H    -5.4950458186   -5.4557556960   -0.4841715614
     H    -5.5195278906  -11.7219086098   -1.0620227738
     H    -7.8487394869  -12.5418764362   -1.2175822497
     H    -9.6275375323  -11.5362251853    0.2012226926
     H    -9.0416379380   -9.7146084820    1.7914785191
     H    -6.7048690256   -8.9202176442    1.9676919130
     H    -4.5789268276  -12.0277842127    2.0386998752
     H    -2.7714133778  -13.7158352353    2.1003113375
     H    -0.7272782103  -13.4118782903    0.7151542644
     H    -0.5233047070  -11.4075876878   -0.7443259344
     H    -2.3463283524   -9.7374726770   -0.8271038542
     H     1.0439401890    0.5851979265    0.2680505534
     H    -0.2057009779   -0.2090111290   -0.6803203451
     H     2.8140847196   -0.6711627843   -1.0193780119
     H     1.7824349192    0.2764247479   -2.1031893417
     H     1.5493499443   -1.4735319996   -1.9628702691
