91
-2.8258894808520245e+03 frame 59   xyz file generated by TeraChem
     C     0.2410059958   -0.5091759463    2.4439626609
     C    -0.2274717847   -0.9072964313    1.0474578873
     N    -1.6751905534   -0.9536171735    0.9010412606
     C    -2.4785044033   -2.0724233163    0.9655827037
     C    -2.2851982264   -3.4393239791    1.1294582330
     C    -3.4953074315   -4.1427951670    1.1008475202
     S    -4.8765644629   -3.0584160772    0.8334827205
     C    -3.8384751833   -1.6910192447    0.8129453984
     C    -3.8501961643   -0.3018079600    0.6855818883
     C    -2.5076212204    0.1230878655    0.7389584823
     C    -2.3408015981    1.5192034558    0.6166943042
     C    -3.5537496788    2.1599934541    0.4726049185
     S    -4.9158029039    1.0410720142    0.4664979610
     C    -3.7902579962    3.5903670122    0.3291244576
     C    -2.7943455095    4.4312580827   -0.1968369596
     C    -2.9959205039    5.7952492280   -0.3206488745
     C    -4.2140995588    6.3784091368    0.0655106119
     C    -5.2174744202    5.5437025934    0.5823515580
     C    -5.0046483180    4.1817253196    0.7139440090
     N    -4.4237891316    7.7591695769   -0.0639497349
     C    -3.8643704246    8.4699536159   -1.1538076056
     C    -3.9036587404    7.9306282506   -2.4455262445
     C    -3.3536603864    8.6323031573   -3.5129381722
     C    -2.7758524856    9.8853034048   -3.3135986933
     C    -2.7459252851   10.4273219006   -2.0296167667
     C    -3.2767912184    9.7246045883   -0.9528143347
     C    -5.2059957456    8.4551077848    0.8905689022
     C    -5.0355748784    8.2079329657    2.2580744234
     C    -5.8072079510    8.8891841574    3.1932214558
     C    -6.7429510528    9.8373477563    2.7820419296
     C    -6.9052940270   10.0918591753    1.4211126553
     C    -6.1506950055    9.4020760287    0.4776709734
     C    -3.7466431721   -5.5273545585    1.1176684146
     C    -2.9911914770   -6.6034796244    1.5710920613
     C    -3.4239518113   -7.8970554090    0.9807022303
     O    -4.3921915506   -7.9871402551    0.2328627882
     N    -2.6619128248   -9.0235700630    1.2699333667
     C    -2.9992762500  -10.2922716178    0.6217916165
     C    -3.7534059531  -11.2749725953    1.5247999623
     C    -5.0898871973  -10.7101685492    1.9990257515
     C    -3.9162225709  -12.5981386441    0.7666820852
     C    -4.4697671000  -13.7403677663    1.6114388046
     C    -1.5595180330   -9.0246480018    2.1148152817
     O    -0.8985377544  -10.0412752590    2.2931100253
     C    -1.2743297837   -7.7680406156    2.8027305390
     C    -1.9588903881   -6.5958518546    2.5648249178
     C    -1.6829883615   -5.4145091308    3.4486114734
     C    -0.2548617040   -7.8342226307    3.7903743515
     N     0.5820532695   -7.8647091040    4.5987192300
     C    -0.1465222456   -1.4955446019    3.5402065304
     C     0.3885190349   -1.0859891947    4.9070430572
     H    -0.1461647923    0.4896447998    2.6876788677
     H     1.3346681299   -0.4150413738    2.4029959370
     H     0.1538273410   -1.8984214437    0.7818123225
     H     0.1557785494   -0.2042507866    0.3003727406
     H    -1.3229760245   -3.9295062564    1.2065567902
     H    -1.3929956512    2.0423574023    0.6667542551
     H    -1.8480610391    4.0079529991   -0.5216328549
     H    -2.2059585801    6.4209684447   -0.7239552956
     H    -6.1687083154    5.9699562978    0.8849422174
     H    -5.7980311636    3.5685456460    1.1345925889
     H    -4.3703521599    6.9631292907   -2.6063560902
     H    -3.3924252050    8.2014573457   -4.5100123619
     H    -2.3547710481   10.4346364875   -4.1508841597
     H    -2.2935644858   11.4007860550   -1.8591663508
     H    -3.2405456499   10.1438999980    0.0485241552
     H    -4.2955255816    7.4816064204    2.5818204374
     H    -5.6636629719    8.6869756779    4.2514167734
     H    -7.3390467633   10.3732542347    3.5152464752
     H    -7.6353906942   10.8243825650    1.0867760581
     H    -6.2892663417    9.5928616174   -0.5826161190
     H    -4.6718218803   -5.8365704711    0.6305079844
     H    -2.0555519343  -10.7405207751    0.3002859093
     H    -3.5963316555  -10.0468793788   -0.2585626029
     H    -3.1209142646  -11.4643324304    2.4028166280
     H    -5.7637921043  -10.5378721816    1.1512328378
     H    -4.9594405368   -9.7576057665    2.5237049888
     H    -5.5849154950  -11.3977259152    2.6925375543
     H    -2.9371229845  -12.8969360341    0.3671870766
     H    -4.5666002740  -12.4312636301   -0.1043801089
     H    -3.8417390606  -13.9128301433    2.4937372491
     H    -4.4998805465  -14.6719202186    1.0355700211
     H    -5.4877867887  -13.5370306389    1.9604280811
     H    -1.5388150321   -5.7554542989    4.4783595925
     H    -2.5001134054   -4.6930914466    3.4299358313
     H    -0.7613921897   -4.8981715765    3.1569093379
     H     0.2334226831   -2.4931057841    3.2774617153
     H    -1.2399404105   -1.5836538536    3.5862383566
     H     1.4834067510   -1.0273861046    4.9007203652
     H     0.0957057795   -1.8037928834    5.6806408764
     H     0.0045063905   -0.1018206016    5.2009133150
