42
-9.9070902950556115e+02 frame 74   xyz file generated by TeraChem
     C     2.6980970875   -1.9985742054    2.6721288970
     C     2.8196719250   -1.8294844976    1.1550210243
     C     2.4028628949   -0.3963738669    0.9497665383
     C     2.9938641645    0.4948604401    0.1242266245
     C     4.3777225463    0.1329644016   -0.2651167425
     C     5.0380967028   -0.4687063906   -1.3310951747
     C     6.2366353711   -1.0498498862   -0.8330303362
     C     6.3107216010   -0.7864755614    0.5338347233
     N     5.2142558988   -0.0049990953    0.8097205152
     C     6.9008023372   -1.4320747719    1.7041570752
     C     7.0812994944   -0.7586078981    2.8865059864
     N     6.7248354144   -1.2677650951    4.1304607415
     C     6.8550467696   -0.2998081617    5.1183244376
     C     6.1032995379   -0.2142256638    6.2636136949
     C     4.7319236427   -0.6955650795    6.3244446556
     N     3.9643622292   -0.5599931221    5.1859899478
     C     2.6260705683   -0.7375402667    5.4358742187
     C     1.6929612470   -0.3669667257    4.3623262906
     C     1.8681517592   -0.8051370378    3.0987245858
     N     1.3996872565   -0.1789311603    1.9202378598
     C     2.5318947378   -1.0645256278    6.7832395318
     C     3.8393953630   -1.0386599058    7.3364663068
     C     7.6276239546    0.7624181327    4.5042501456
     C     7.6460171276    0.5489554378    3.1598634820
     H     3.6785736640   -1.9980360377    3.1528647387
     H     2.2004624668   -2.9301426239    2.9612139698
     H     2.0919999809   -2.4644227844    0.6340147400
     H     3.8082416898   -2.0624020866    0.7607156726
     H     2.6091112228    1.5072521032    0.0114073620
     H     4.6614104634   -0.5457195668   -2.3435185522
     H     6.9489855763   -1.6354498521   -1.4011403724
     H     4.9191115814    0.2043071493    1.7522389167
     H     6.7353320947   -2.5088484256    1.7693366501
     H     6.0667621699   -2.0294328976    4.2116989064
     H     6.4122528246    0.5133250383    7.0103960716
     H     4.2951728027   -0.0924356432    4.3543096982
     H     1.0134081310    0.4634998908    4.5536656211
     H     1.0826970968    0.7773972012    2.0314327081
     H     1.6159535096   -1.3020327807    7.3098549701
     H     4.1076253372   -1.2478037164    8.3646282337
     H     7.9970402031    1.6312209579    5.0355104387
     H     8.0767877425    1.1896508085    2.4001430455
