53
-1.2797618115114510e+03 frame 60   xyz file generated by TeraChem
     C     1.3724133766    1.5892915375   -0.9231562170
     C     2.7411646129    1.8920720849   -1.4830765746
     O     3.5615946630    0.7400143655   -1.2347466786
     C     4.8249064079    0.7746514095   -1.6619503765
     N     5.2714044921    1.8321188539   -2.3176324899
     C     6.5520418508    1.7844270071   -2.6982035769
     C     7.4384969767    0.7261515148   -2.4510290151
     C     6.9729958450   -0.4021893664   -1.7755004830
     C     5.6200231552   -0.3641988969   -1.3667052990
     C     5.0313611962   -1.4145961128   -0.6100036217
     N     4.5320792964   -2.2557817951    0.0202801345
     C     7.8293723399   -1.5746063529   -1.5109344960
     C     9.0852282560   -1.4287938010   -0.9042397542
     C     9.8962114000   -2.5217406530   -0.6528558981
     C     9.4975049341   -3.8257761539   -1.0114710153
     C     8.2370984150   -3.9688131423   -1.6206971679
     C     7.4258950462   -2.8670588205   -1.8599379486
     N    10.3487191052   -4.9100889434   -0.8034856643
     C    11.0697901591   -4.9904724433    0.4648968550
     C    12.2088301486   -5.9881405785    0.3619034837
     O    11.7434145945   -7.2639462528   -0.0296866800
     C    11.1084166040   -7.1730310031   -1.2875841754
     C     9.9213983894   -6.2234215261   -1.2595622862
     C     8.7746381713    1.0231700494   -3.0794696786
     C     8.5514268508    2.3757072815   -3.7075171191
     C     7.2394202755    2.8147588150   -3.4676436632
     C     6.7834830346    4.0437034977   -3.9415799058
     C     7.6677255539    4.8377439954   -4.6649291959
     C     8.9767275900    4.4057897224   -4.9068682545
     C     9.4288258510    3.1739443257   -4.4303143154
     H     0.7115504922    2.4455644213   -1.0908397889
     H     1.4235148218    1.3972683049    0.1530393728
     H     0.9353810694    0.7141860737   -1.4138944764
     H     3.1970894291    2.7633521501   -1.0012667096
     H     2.7093673054    2.0817302349   -2.5608078235
     H     9.4268765056   -0.4428100698   -0.6015570321
     H    10.8637935845   -2.3528399671   -0.1922053507
     H     7.8671299618   -4.9486192871   -1.8998914690
     H     6.4617901169   -3.0221754640   -2.3368864916
     H    10.3854652178   -5.3023857244    1.2721490798
     H    11.4823327514   -4.0163029417    0.7323827758
     H    12.6896553971   -6.1089090502    1.3368465875
     H    12.9568587410   -5.6232619202   -0.3608209325
     H    10.7733642223   -8.1804951106   -1.5502180423
     H    11.8293433269   -6.8299689090   -2.0475675175
     H     9.1277593840   -6.6375081142   -0.6135595581
     H     9.5265586433   -6.1458051789   -2.2769604008
     H     9.0529604116    0.2618111585   -3.8206133534
     H     9.5924922685    1.0550771905   -2.3494817061
     H     5.7643740219    4.3662985281   -3.7473343373
     H     7.3411468838    5.8012727633   -5.0466760041
     H     9.6521520152    5.0401348484   -5.4748915199
     H    10.4482596029    2.8500685348   -4.6249211280
