56
-1.2239272172904293e+03 frame 66   xyz file generated by TeraChem
     C     1.0502516233    0.6850411413   -0.5783390257
     N     2.4856638711    0.5100634225   -0.5261605969
     C     3.0965227221    0.2029372639    0.6557897424
     C     2.3562574012    0.0855586695    1.8587594894
     C     2.9744951703   -0.2403987295    3.0492027463
     C     4.3621389831   -0.4633392986    3.1309769615
     C     5.0969837185   -0.3015341921    1.9417078693
     C     4.4954666348    0.0053114929    0.7355922732
     C     5.0800189399   -0.7523346697    4.3572588342
     C     4.6863866805   -1.2345748693    5.5657810656
     C     5.5433610788   -1.1043674385    6.8042322339
     C     4.5166387751   -0.7472232924    7.8864730711
     C     3.2226087842   -1.3683407718    7.4006792166
     C     2.0525936315   -1.4782117346    8.0975682966
     C     1.6996633846   -1.0453670280    9.4252364930
     C     0.4208963472   -1.4092373201    9.9059133900
     C    -0.0289337375   -1.0613324091   11.1611770771
     C     0.7861487489   -0.3001657420   12.0359518531
     C     2.0628421382    0.0887001861   11.5570770345
     C     2.4990256264   -0.2746599053   10.2992821471
     N     0.3592681770    0.0481288436   13.2813105774
     C    -0.9557545120   -0.3517951494   13.7377634496
     C     1.2094671980    0.8362258225   14.1494514593
     C     3.4095438080   -1.7864334444    6.0203177640
     C     2.6497297321   -2.6881627109    5.2746500369
     C     1.4420019467   -3.2869416223    5.7165711376
     N     0.4475995963   -3.8045023594    6.0375988438
     C     3.1041004246   -3.2045063081    4.0320467921
     N     3.4479407767   -3.6885867763    3.0295447176
     C     3.2659321321    0.6119450422   -1.7397081488
     H     0.7194762398    1.5093560572    0.0672173163
     H     0.5178996366   -0.2247232145   -0.2692199393
     H     0.7562894101    0.9188934125   -1.6021098929
     H     1.2858832938    0.2580964800    1.8580459028
     H     2.3662792492   -0.3001939789    3.9466593128
     H     6.1765701567   -0.4361537177    1.9681636740
     H     5.1134446623    0.1001041715   -0.1501112762
     H     6.1303707960   -0.4573376488    4.3184552705
     H     6.3326311597   -0.3561253589    6.6958443135
     H     6.0184428386   -2.0648911458    7.0468081436
     H     4.4187441670    0.3439216830    7.9708646540
     H     4.8032165595   -1.1277080251    8.8723292390
     H     1.2243413389   -1.9577969504    7.5834806947
     H    -0.2317712486   -1.9933850786    9.2606016606
     H    -1.0185045737   -1.3774092865   11.4708517212
     H     2.7173163334    0.6865671657   12.1810289027
     H     3.4784851578    0.0670635927    9.9887548912
     H    -1.7492824280    0.0681404082   13.1056713801
     H    -1.1043359126    0.0096623905   14.7555496511
     H    -1.0644472647   -1.4439703012   13.7440482132
     H     1.4394357461    1.8163720204   13.7112203461
     H     2.1570044530    0.3229363388   14.3577954111
     H     0.6962087231    0.9996305913   15.0972969178
     H     2.6052598772    0.8670317449   -2.5689412439
     H     3.7683813658   -0.3347665275   -1.9812731157
     H     4.0332876900    1.3939063999   -1.6633495322
