25
-1.8424034202319076e+03 frame 47   xyz file generated by TeraChem
    Cl     2.1829826577    0.7383257215    0.8685407195
     C     2.2416120570    0.1578952761   -0.7376565831
     C     1.8744273714   -1.0661519170   -1.1693499716
     C     1.3400939442   -2.2159885265   -0.4501179306
     C     1.0654505864   -2.3525551619    0.8571901381
     C     0.4752751580   -3.6111717995    1.3980826242
     C     1.0734682301   -4.1272339050    2.7163991024
     C     2.5429815922   -4.4464487534    2.6063240021
     C     3.2657912861   -4.5833219916    1.4966576328
    Cl     0.9312563804   -2.8065819533    3.9940788933
     C     0.3439588221   -5.3516253122    3.2571017370
    Cl    -1.3264178761   -3.3411556081    1.5728748570
     C     2.0483095627   -1.2669311423   -2.6386991545
     O     2.4547451304   -0.4295772045   -3.4183543089
     H     2.6209344284    0.8876275421   -1.4458079637
     H     1.1412863322   -3.0746509792   -1.0945151386
     H     1.2187519310   -1.5514253172    1.5714510611
     H     0.5508144508   -4.4238437684    0.6698107200
     H     3.0046482141   -4.6450964031    3.5726603998
     H     2.8731717549   -4.4159499156    0.4992084186
     H     4.3085382242   -4.8817429435    1.5634736075
     H     0.3590459729   -6.1367529617    2.4928429073
     H    -0.6924642272   -5.1214045505    3.5125252718
     H     0.8550075225   -5.7247925261    4.1487071415
     H     1.7665788656   -2.2780086725   -2.9934616741
