80
-1.8038065836548212e+03 frame 129   xyz file generated by TeraChem
     C     7.1698511738    0.0333268597   -0.8041974880
     N     6.0953057825   -0.9200082172   -0.9500429274
     C     6.2119669380   -2.1258021197   -1.6542790999
     C     7.2803770278   -2.6072583802   -2.4011898200
     C     7.1340163399   -3.8553372673   -3.0052591322
     C     5.9615761896   -4.6151131942   -2.8790672413
     C     4.9014400753   -4.0939754233   -2.1131849450
     C     5.0319209816   -2.8572374226   -1.5133266059
     C     4.0727863600   -2.0760975874   -0.6498485601
     C     4.8736069152   -0.8013366437   -0.3791464005
     C     4.3454257310    0.2412049812    0.3624748959
     C     4.7112113371    1.5617345893    0.6459423521
     C     3.9084623684    2.4563797943    1.4884110596
     O     2.8723364526    2.2645773327    2.1241894259
     C     4.8312181626    3.5718747738    1.2028438893
     C     5.0611548823    4.9453695045    1.3312297725
     C     4.4741204921    5.9778296714    2.0436038017
     N     3.6001400716    5.9191792574    3.0746104458
     C     3.1835815768    4.7093683623    3.7456279111
     C     3.2065890835    7.2012681288    3.4792027934
     C     3.8865346177    8.1551046648    2.7205738554
     C     4.7873222521    7.4444667606    1.7399230125
     C     6.2666422430    7.7536081145    2.0237618930
     C     4.4379262515    7.7921210338    0.2867660442
     C     3.6709379899    9.5014161856    2.9399912050
     C     2.7555663507    9.9105013938    3.9289405399
     C     2.0844445174    8.9273049296    4.6710408889
     C     2.2932700810    7.5653717928    4.4606468651
     C     2.5057405212   11.3473847459    4.1777439330
     C     1.2278162975   11.8079109444    4.5279852975
     C     0.9948568748   13.1589876863    4.7653431172
     C     2.0334434799   14.0816684080    4.6532918599
     C     3.3078473839   13.6390531160    4.3036536672
     C     3.5413738192   12.2873830768    4.0701590834
     C     5.6247762376    2.6821064770    0.3453864230
     O     6.6297226821    2.8880393721   -0.3343086937
     C     2.7673490374   -1.7631431389   -1.3942938555
     C     3.7743615688   -2.8194560868    0.6623696914
     C     5.8328593852   -5.9281012721   -3.5483945323
     C     6.9337127682   -6.7886074184   -3.6743122102
     C     6.8096334393   -8.0189603357   -4.3123306968
     C     5.5813497102   -8.4194347290   -4.8352148250
     C     4.4781747492   -7.5762865418   -4.7146078029
     C     4.6032801464   -6.3445168135   -4.0798944122
     H     8.1121289929   -0.4445493071   -1.0733700175
     H     7.2202544210    0.3587838862    0.2378763126
     H     7.0061722303    0.9223935018   -1.4165976550
     H     8.1947343704   -2.0391179797   -2.5388389907
     H     7.9473065365   -4.2347831025   -3.6175179488
     H     3.9907920363   -4.6727295202   -1.9798812194
     H     3.3785023760   -0.0014266010    0.8059725065
     H     5.8562515601    5.2828483945    0.6650143727
     H     4.0379018964    4.0314273223    3.8127843382
     H     2.3967750622    4.1917951260    3.1935765243
     H     2.8462811467    4.9580968260    4.7526886430
     H     6.5315182443    7.5026761620    3.0554792183
     H     6.4541404526    8.8212718157    1.8664387777
     H     6.9161582542    7.1883297389    1.3475129153
     H     3.3877766694    7.5736496729    0.0697809945
     H     5.0634935502    7.2191481421   -0.4052324427
     H     4.6151263681    8.8582608802    0.1084296985
     H     4.1836815280   10.2456593123    2.3355939947
     H     1.3905436020    9.2328727433    5.4491354783
     H     1.7535461398    6.8313154889    5.0502459162
     H     0.4030795939   11.1027507621    4.5918639124
     H    -0.0054654788   13.4932781584    5.0284384353
     H     1.8510528347   15.1370987709    4.8368767447
     H     4.1278984121   14.3477891838    4.2211995589
     H     4.5463814055   11.9529790328    3.8252995896
     H     2.9639390056   -1.2334228188   -2.3316031572
     H     2.1095721087   -1.1440238712   -0.7757156932
     H     2.2425829999   -2.6963870134   -1.6256116373
     H     4.6958218303   -3.0410588997    1.2097551742
     H     3.2656467982   -3.7640232955    0.4411922119
     H     3.1210156648   -2.2207303175    1.3055048270
     H     7.8914270594   -6.5007280305   -3.2479899020
     H     7.6750306794   -8.6718908856   -4.3925389224
     H     5.4844676618   -9.3808565609   -5.3324192342
     H     3.5167802932   -7.8735998208   -5.1255902891
     H     3.7416503675   -5.6847411154   -4.0172263858
