117
-3.1665626914651366e+03 frame 97   xyz file generated by TeraChem
     C     3.0599434504    0.5691641297   -1.6514759211
     O     2.6437799886   -0.0975612077   -0.4617666557
     C     3.3774043804   -1.1956034721   -0.1063279869
     C     4.6977093426   -1.0498097203    0.3735218873
     O     5.1753051088    0.2189244254    0.3724620228
     C     6.4799099160    0.4329803833    0.8788886005
     C     5.4117170825   -2.1520239419    0.8369483467
     C     4.8114186948   -3.4173967121    0.8510623513
     C     3.5124025102   -3.5678282768    0.3828804512
     C     2.7905357614   -2.4679007369   -0.0976583256
     O     1.5066643597   -2.7291528836   -0.4558551533
     C     0.9263085032   -2.0602617805   -1.5680520208
     C     5.5681984748   -4.5952395717    1.3710880651
     C     5.7655537766   -4.6954454055    2.7610680865
     C     5.2723961385   -3.6985014311    3.6966843118
     C     5.6281488956   -4.1286700151    4.9288353847
     C     6.3152222139   -5.3954008600    4.7344226701
     N     6.3984378346   -5.7110217626    3.4114813906
     C     6.8080481656   -6.1692802447    5.8028060129
     C     7.5008978553   -7.3809152322    5.6620823891
     C     7.9304908780   -8.2459657297    6.7156449054
     C     8.5393540201   -9.3313762162    6.1499914498
     C     8.5050877466   -9.1690926604    4.7298899584
     C     9.0110143658  -10.0617620070    3.7741941606
     C     8.8866830255   -9.9139917438    2.3786941202
     N     8.1852124220   -8.9422443394    1.7308008561
     C     8.3636540421   -9.1951480419    0.4044032487
     C     7.8279193632   -8.4456515669   -0.6629564646
     C     7.0703705845   -7.2755427111   -0.5193251880
     N     6.7581647919   -6.6463584782    0.6568652112
     C     6.0277528282   -5.5123942033    0.4185989688
     C     5.8567396061   -5.4254851534   -0.9986343186
     C     6.4813079035   -6.4999269876   -1.5671135116
     C     8.0928956678   -8.9065629684   -2.0546417641
     C     7.5670494434  -10.1264289493   -2.5074581122
     C     7.8322004604  -10.5564850864   -3.8015202383
     O     7.3904970355  -11.7143107187   -4.3642310338
     C     6.5827357861  -12.5671647606   -3.5729663856
     C     8.6267745419   -9.7856748231   -4.6678700941
     C     9.1377346201   -8.5667376398   -4.2193029445
     C     8.8680014060   -8.1346876442   -2.9209391368
     O     9.9571265164   -7.8154244848   -5.0173427347
     C     9.3057782217   -7.1987995605   -6.1232924438
     O     8.9024732042  -10.2237407678   -5.9197048265
     C     9.2224413809  -10.3499111642    0.2018076209
     C     9.5466965057  -10.8009019813    1.4359321786
     C     9.7266934677  -11.2585990370    4.2979679680
     C     9.1934373792  -12.5399236546    4.0882696972
     C     9.8504552509  -13.6528779420    4.5964128007
     O     9.4325036626  -14.9440520563    4.4935875618
     C     8.2397469998  -15.1964604079    3.7722633829
     C    11.0492737349  -13.5153924185    5.3180551082
     C    11.5904779180  -12.2421186720    5.5038392083
     C    10.9246961052  -11.1243211894    5.0001418339
     O    12.7411646346  -12.0612356188    6.2214824210
     C    13.9122373572  -12.5990989868    5.6138416813
     O    11.6620035674  -14.6053529720    5.8397377664
     N     7.8668566678   -7.9812759806    4.4869255449
     C     6.5719083694   -5.6941709451    7.1949679965
     C     7.6556638356   -5.3208516685    8.0051683800
     C     7.4312379249   -4.8790457894    9.3032014787
     O     8.3846741615   -4.4819423452   10.1897704597
     C     9.7348170102   -4.5039353632    9.7616429235
     C     6.1265615066   -4.8060265683    9.8213444925
     C     5.0514448706   -5.1727686332    9.0115060920
     C     5.2768381426   -5.6132809749    7.7080624009
     O     3.7751674362   -5.1470640980    9.5086651761
     C     3.2199000104   -3.8389408680    9.5943754461
     O     5.9097863155   -4.3896188218   11.0912191970
     H     2.3486603007    1.3831929005   -1.8056836090
     H     3.0262431430   -0.1101082845   -2.5117628845
     H     4.0685999694    0.9767903167   -1.5450876275
     H     6.6577639387    1.5062380221    0.7983919288
     H     7.2311498348   -0.1068951877    0.2902088544
     H     6.5536268299    0.1281171120    1.9296494193
     H     6.4247316925   -2.0417141389    1.2061081204
     H     3.0256597341   -4.5381231368    0.3871182172
     H     0.0699795255   -2.6709596777   -1.8634363776
     H     1.6319968387   -2.0040688949   -2.4050041663
     H     0.5898387930   -1.0551635577   -1.3055569512
     H     4.7354948815   -2.7969342929    3.4347179032
     H     5.4461227130   -3.6472634651    5.8797994454
     H     7.7707650341   -8.0563823714    7.7673720982
     H     8.9659886257  -10.1842167365    6.6581219677
     H     7.0283897805   -6.9807059632    1.5763840383
     H     5.3178941368   -4.6346670159   -1.5009576591
     H     6.5413584534   -6.7447494310   -2.6178357088
     H     6.9527175916  -10.7233523816   -1.8421977684
     H     6.3494460233  -13.4287004167   -4.1997509512
     H     5.6537599565  -12.0657791248   -3.2772082251
     H     7.1202033831  -12.8991973084   -2.6770337855
     H     9.2949653209   -7.1914096957   -2.5938555675
     H    10.0731995901   -6.6299585837   -6.6523881930
     H     8.5191628595   -6.5156783669   -5.7788871538
     H     8.8725318409   -7.9436900831   -6.7986376940
     H     8.4491280723  -11.0779972915   -6.0266031947
     H     9.5440401591  -10.7390849662   -0.7545177248
     H    10.1883181699  -11.6321712121    1.6945599967
     H     8.2607702670  -12.6486607780    3.5454484250
     H     8.0935902320  -16.2768329759    3.7997501624
     H     8.3327047970  -14.8633134137    2.7320086888
     H     7.3835745048  -14.6975168109    4.2409168243
     H    11.3688524673  -10.1469449578    5.1630234731
     H    14.7434827625  -12.3410127366    6.2732716502
     H    14.0764897351  -12.1476492863    4.6277728665
     H    13.8485002516  -13.6868485457    5.5138333687
     H    11.1298465414  -15.3788610737    5.5840910085
     H     7.6523837773   -7.6144653957    3.5652597333
     H     8.6629041459   -5.3701828371    7.6056162639
     H    10.3249022487   -4.1469019039   10.6064503814
     H     9.8848969660   -3.8413485463    8.9013584183
     H    10.0475524126   -5.5211325377    9.4982626584
     H     4.4209749078   -5.9034182328    7.1062289248
     H     2.2100274480   -3.9577997653    9.9927233707
     H     3.1675792257   -3.3727314019    8.6024941006
     H     3.8041201575   -3.2018245413   10.2672049144
     H     6.7796941115   -4.1838821427   11.4752598154
