61
-1.4631718055025185e+03 frame 78   xyz file generated by TeraChem
     C     1.2104504995   -0.8582930027   -0.2963624243
     O     2.6277984098   -0.7133561176   -0.3736246718
     C     3.2203000247   -0.0576000986    0.6660824355
     C     3.2469942605   -0.6123122073    1.9647882625
     O     2.6068746347   -1.7985481415    2.1060594550
     C     2.6121373636   -2.3995439679    3.3882425138
     C     3.9202996854    0.0370138291    2.9940038084
     C     4.5947301020    1.2398161761    2.7468605810
     C     4.5881560923    1.7804602184    1.4643728324
     C     3.9036805132    1.1424637160    0.4277565610
     O     4.0063430617    1.7127162238   -0.8037489658
     C     2.8184423113    1.8999463886   -1.5650305410
     C     5.3382634236    1.8775012606    3.8662236091
     N     5.8988555941    1.0998720071    4.7329537423
     C     6.4727638856    1.8049067488    5.8557528453
     C     7.6361234726    0.9936861880    6.4497193487
     C     7.2430548318   -0.4148830740    7.0227404566
     C     7.7485225602    0.0913665719    8.3577839726
     C     8.0766600317    1.3462925838    7.8542804405
     C     6.8948524362    3.2044953561    5.5987746313
     C     6.7385011666    3.8330414920    4.4062441653
     C     5.5203725726    3.3323442721    3.8756714704
     C     4.5694058814    4.3098556930    3.3516797565
     C     3.1800970035    4.1404638461    3.4224039576
     C     2.3177241081    5.1308579311    2.9703726052
     C     2.8704611642    6.2956939962    2.4503038244
     C     4.2417029692    6.4980126170    2.3624335127
     C     5.1040884154    5.5004632160    2.8109340389
     C     6.5988434769    5.6199256172    2.6802720672
     C     7.3174898036    5.1384555994    3.9459112007
    Br     1.6691293443    7.7000274357    1.8223693370
     C     8.6065823025    2.3514682837    8.6441025868
     C     8.8093997950    2.0334884668    9.9937617223
     C     8.4805709294    0.7650078360   10.4711184995
     C     7.9401793400   -0.2546992703    9.6860846992
    Br     8.7902035512    0.3945082810   12.3744604605
     H     0.9100394793   -1.3647622382   -1.2157107594
     H     0.7228012125    0.1226239830   -0.2455924391
     H     0.9198536121   -1.4595057248    0.5682719075
     H     2.0494062388   -3.3281359174    3.2835164704
     H     2.1243344206   -1.7579480152    4.1316819094
     H     3.6333565308   -2.6258874468    3.7167540488
     H     3.9529540995   -0.3790826221    3.9934113737
     H     5.1135301794    2.7008847705    1.2326394997
     H     3.0384741144    2.7041861784   -2.2711159617
     H     1.9854208529    2.2052165940   -0.9212320174
     H     2.5447976116    0.9951543317   -2.1132084813
     H     5.6984494014    1.8564192936    6.6409980365
     H     8.4520572377    0.9445728775    5.7191612965
     H     7.7896118553   -1.2585497482    6.5893328962
     H     6.1698857806   -0.6279521705    6.9760217852
     H     2.7701791149    3.2280687275    3.8462576740
     H     1.2426806902    5.0010907010    3.0338889174
     H     4.6408794621    7.4162623935    1.9426371349
     H     6.8840186652    6.6485545665    2.4400321009
     H     6.9204811805    4.9943329787    1.8352424909
     H     7.2168662486    5.8745807495    4.7528079573
     H     8.3916213315    5.0301775209    3.7521980422
     H     8.8542575328    3.3391853323    8.2655310684
     H     9.2214079726    2.7719453508   10.6736136464
     H     7.6956136392   -1.2249325691   10.1055622170
