61
-1.4382320622458838e+03 frame 86   xyz file generated by TeraChem
     C     0.5719567246   -0.2366604202   -0.7127044300
     O     1.9402672830   -0.3563054892   -0.3291175396
     C     2.6163680996    0.8206208384   -0.1698794186
     C     2.3143379255    1.6944116479    0.8961537369
     O     1.2862203492    1.3085374172    1.6921159019
     C     0.9856807115    2.1142540266    2.8162298724
     C     3.0697273538    2.8453458485    1.1003462799
     C     4.1408038817    3.1441942632    0.2492576137
     C     4.4584203677    2.2725287990   -0.7886437495
     C     3.7031542457    1.1187806265   -1.0033771042
     O     4.1316861175    0.2866086954   -1.9941103114
     C     3.1759400278   -0.1944557852   -2.9311568228
     C     4.9710705765    4.3473480249    0.5123380860
     N     5.2684718077    4.5430467626    1.8043357793
     C     6.1747500525    5.4522981635    2.1392321452
     C     6.3919045567    5.7225633293    3.6028439073
     C     6.7809760312    7.1862712511    3.8055042666
     C     8.0128337431    7.4771298047    2.9925319815
     C     8.0926373568    6.9349572833    1.6927684683
     C     6.9318287126    6.1656818016    1.1869671652
     C     6.4889707040    6.1080964286   -0.1440358598
     C     5.4505671509    5.2144518946   -0.4919542675
     C     4.9026472815    5.2729257767   -1.8677654499
     C     3.5690273862    4.9535524891   -2.1616232831
     C     3.0875672415    5.0174968117   -3.4638567646
     C     3.9307921096    5.4119835098   -4.5012373470
     C     5.2421558700    5.7808518420   -4.2151394756
     C     5.7313619559    5.7329373645   -2.9103770369
     C     7.0996768435    6.2424502453   -2.5532465606
     C     6.9928476517    7.0126534240   -1.2398393701
     C     9.2976559859    7.0569158137    0.9872689794
     C    10.3683267200    7.7724897232    1.5150047411
     C    10.2584455019    8.3643303353    2.7708226034
     C     9.0888074084    8.1966166551    3.5084951766
     H     0.1981827767   -1.2570711088   -0.8199025330
     H     0.4817555885    0.2859917436   -1.6727044287
     H    -0.0078311034    0.2900041289    0.0495617804
     H     0.1528835974    1.6225643255    3.3211161160
     H     0.6844446172    3.1247282244    2.5148910574
     H     1.8410361289    2.1795335441    3.4993442544
     H     2.8557637801    3.5135695288    1.9257101651
     H     5.2945745277    2.4689351902   -1.4515400918
     H     3.7468299766   -0.5033224187   -3.8100753097
     H     2.4755882650    0.5988345357   -3.2189987314
     H     2.6202882569   -1.0480065587   -2.5357533759
     H     5.4763975229    5.4659038917    4.1449311104
     H     7.1909515251    5.0733785664    3.9909546627
     H     6.9638792481    7.4003181937    4.8634489150
     H     5.9470514601    7.8278630359    3.4845351578
     H     2.8984441071    4.6604961759   -1.3603850300
     H     2.0496822315    4.7667973333   -3.6670867517
     H     3.5612957512    5.4591903513   -5.5223119561
     H     5.8949622519    6.1332319098   -5.0110829181
     H     7.4813388834    6.8891105142   -3.3501318482
     H     7.8144311314    5.4138402915   -2.4378846535
     H     6.2575799723    7.8216514338   -1.3715552695
     H     7.9347364658    7.4914757554   -0.9789857752
     H     9.4166757314    6.5550383892    0.0317522183
     H    11.2925663924    7.8538947754    0.9492442959
     H    11.0896017156    8.9271922071    3.1873604066
     H     9.0122374313    8.6155779437    4.5095958815
