35
-9.5606408893357798e+02 frame 24   xyz file generated by TeraChem
     C     3.5608685491    0.4648099084    1.0017590040
     O     3.0280015508    0.4338295384   -0.3122812228
     C     3.4579192966   -0.5290588452   -1.1490608830
     C     4.4076697431   -1.4803581648   -0.8247162890
     C     4.7863692974   -2.4462869555   -1.7780689631
     O     5.7152067393   -3.3244440622   -1.3542725986
     C     6.1551176907   -4.3214889009   -2.2628162113
     C     4.2239600908   -2.4675695735   -3.0519897960
     C     3.2710804034   -1.4986081626   -3.3496944377
     C     2.8624734455   -0.5192421172   -2.4397076472
     C     1.8678954308    0.4094686294   -2.8559014250
     C     1.3180457969    0.3734909210   -4.1050598726
     C     0.2970957367    1.3501751460   -4.5370668167
     C     0.3817722758    2.6841991394   -4.1120293642
     C    -0.5930157866    3.6110790589   -4.4679450598
     C    -1.6705096766    3.2237684571   -5.2618957545
     C    -1.7620512172    1.9026647820   -5.6963666384
     C    -0.7885140900    0.9741766569   -5.3419121685
     C     1.7671229794   -0.6515213263   -5.0424420843
     O     1.3929638226   -0.8118834059   -6.1840566885
     O     2.7286507376   -1.5353803402   -4.5917726105
     H     3.0720630521    1.3021216839    1.5006912081
     H     4.6442658741    0.6292327350    0.9837074901
     H     3.3393412296   -0.4648203484    1.5381279829
     H     4.8807340576   -1.5154138428    0.1491081573
     H     6.9017819782   -4.9057774315   -1.7241202059
     H     6.6116018087   -3.8718832664   -3.1518880331
     H     5.3269448090   -4.9726340472   -2.5644721599
     H     4.4928659788   -3.1969591554   -3.8053737683
     H     1.5313542556    1.1540029436   -2.1405660759
     H     1.2319368399    3.0022767811   -3.5136327200
     H    -0.5030147758    4.6410766646   -4.1327110688
     H    -2.4303230959    3.9473758131   -5.5451501470
     H    -2.5992416771    1.5895112135   -6.3148556790
     H    -0.8690431232   -0.0506804232   -5.6864476593
