43
-1.6093276408248512e+03 frame 69   xyz file generated by TeraChem
     C     1.7091162821    1.0675272332   -1.2106114505
     O     3.0231573502    1.6010188717   -1.2316843094
     C     3.4463537134    2.2975663747   -0.1597233528
     C     2.6796652590    2.5271304767    0.9895079155
     C     3.2203907827    3.2605412012    2.0384714505
     C     4.5180120639    3.7746109654    1.9671266972
     C     5.2755878749    3.5352146878    0.8084711223
     C     4.7512850334    2.8092354813   -0.2415728743
     C     5.1510134858    4.5582813748    3.0492741817
     O     6.2992205022    4.9598279630    2.9919677380
     S     4.1307802462    4.9063801602    4.4823403970
     C     5.3429279992    5.8199243905    5.4856337828
     C     4.7500654015    6.1482624764    6.8500570490
     C     5.7580733012    6.9098420563    7.7168866410
    Si     5.1341664455    7.2897409359    9.4320553875
     O     6.3724969107    8.0891243640   10.1872400080
     C     6.2676478530    8.5334903228   11.5314051544
     O     3.7241457005    8.1529008346    9.4414692318
     C     3.6555820343    9.4539861243    8.8823756307
     O     4.7079396350    5.9373810112   10.2845410704
     C     5.6385490258    4.8929033686   10.5113461339
     H     1.5806265234    0.5555988807   -2.1648414780
     H     0.9598991058    1.8621900442   -1.1173055869
     H     1.5870643053    0.3505584666   -0.3906654122
     H     1.6710800170    2.1390385317    1.0746308315
     H     2.6101450515    3.4232684426    2.9230368422
     H     6.2838317356    3.9333631363    0.7528386594
     H     5.3290575826    2.6205830559   -1.1414554341
     H     5.6221938694    6.7299185652    4.9461448933
     H     6.2373950504    5.1981379594    5.5853367533
     H     4.4497151086    5.2202574366    7.3531263083
     H     3.8379573717    6.7454073846    6.7275454969
     H     6.0468976163    7.8500673145    7.2269688080
     H     6.6853321312    6.3276667523    7.8141037639
     H     7.2169026947    8.9996900485   11.8095820007
     H     6.0721726008    7.6982620704   12.2146422718
     H     5.4664923078    9.2738436810   11.6451157439
     H     2.6231306769    9.8037259742    8.9674584138
     H     3.9351837040    9.4533743840    7.8209125529
     H     4.3077702190   10.1557553162    9.4166281775
     H     5.1496926942    4.1312185289   11.1251511180
     H     6.5270131749    5.2535025990   11.0444349062
     H     5.9581066655    4.4270190368    9.5702334715
