97
-2.4625580580457199e+03 frame 75   xyz file generated by TeraChem
     C     2.3617806004   -0.7922730080   -0.3791334725
     O     1.9829947965    0.5092603616    0.0274050522
     C     2.8568299773    1.2160846165    0.7834816468
     C     4.1047256056    0.7461527629    1.2010676594
     C     4.9216012302    1.5633235765    1.9800536624
     C     4.5284835404    2.8510703228    2.3549821699
     C     3.2717221144    3.3048495430    1.9237206528
     C     2.4455663180    2.5031714117    1.1529828722
     C     5.4127853847    3.7137751352    3.1839616035
     C     5.8781838693    4.9239792713    2.6307767564
     C     5.6291231373    5.3007111954    1.2495518650
     C     6.2280285131    6.5008332789    1.0710000692
     C     6.8368152590    6.8438159928    2.3448421993
     N     6.6217132950    5.8686879630    3.2715355792
     C     7.5772337433    8.0276135136    2.5371319548
     C     8.2762935069    8.3563634266    3.7065658156
     C     9.0447371063    9.5390576601    3.9401689477
     C     9.5976436325    9.4450420063    5.1865508786
     C     9.1677336324    8.2127657282    5.7714514138
     C     9.5165574431    7.7218610649    7.0381327761
     C     9.0953289848    6.4876883725    7.5724331276
     N     8.2807988537    5.5819585766    6.9622907024
     C     8.1315570435    4.5700628698    7.8629476125
     C     7.3517108162    3.4100016414    7.6869340222
     C     6.6137574696    3.1036218316    6.5340020217
     N     6.5692457346    3.8302029400    5.3742028163
     C     5.7189224754    3.2479219352    4.4711416190
     C     5.1866250349    2.0824357831    5.1049724115
     C     5.7295934147    1.9946863757    6.3565909405
     C     7.2793590245    2.4234284022    8.7994994260
     C     6.7037060670    2.7546082607   10.0310522121
     C     6.6267358187    1.8408569292   11.0766612314
     C     7.1375334911    0.5479605872   10.9055779220
     C     7.7134036711    0.2021684277    9.6754157550
     C     7.7805847123    1.1248368051    8.6420894101
     N     7.1085614976   -0.4387610362   11.8993697936
     C     6.6301392464   -0.3601288873   13.1785275887
     O     6.1210407903    0.6453926271   13.6574132007
     C     6.7869356887   -1.6273018278   13.9863744100
     C     8.8887482553    4.8319530082    9.0755606874
     C     9.4772367267    6.0373582861    8.9004948827
     C    10.4050134329    8.5866684713    7.8645498095
     C     9.9663111009    9.8252470342    8.3391970731
     C    10.7889236678   10.6479324817    9.1069707647
     C    12.0859969164   10.2310481837    9.4159080918
     C    12.5409959980    8.9911122693    8.9495862676
     C    11.7111092288    8.1859076806    8.1859019323
     O    12.9692167064   10.9480263613   10.1520451849
     C    12.5632939941   12.2228782056   10.6130969608
     N     8.3729706678    7.5955152044    4.8419301481
     C     7.6429973908    9.0066384937    1.4167559537
     C     8.8456227944    9.2759653188    0.7588719289
     C     8.9146151222   10.1829609729   -0.2972349338
     C     7.7579393496   10.8477671369   -0.7121526510
     C     6.5443924482   10.5912709634   -0.0615317232
     C     6.4920850840    9.6832056554    0.9838580900
     O     7.7110146180   11.7500253171   -1.7220099556
     C     8.9056861580   12.0034677904   -2.4372491428
     H     1.5288461427   -1.1758530578   -0.9701444738
     H     2.5285368047   -1.4488961898    0.4834623466
     H     3.2671684304   -0.7702561653   -0.9980348850
     H     4.4516254762   -0.2432330406    0.9235349544
     H     5.8943958914    1.1921045516    2.2920329306
     H     2.9383160200    4.2990808826    2.2089261588
     H     1.4704888557    2.8534259691    0.8267693077
     H     5.0931699601    4.7099318592    0.5194313928
     H     6.2785658783    7.0906960038    0.1660368255
     H     9.1582871034   10.3475643443    3.2323793617
     H    10.2489873466   10.1590693229    5.6695052510
     H     7.0690887639    4.7005304335    5.2233193602
     H     4.4630617107    1.4166450734    4.6569550042
     H     5.5256678730    1.2444917829    7.1071677548
     H     6.2953527670    3.7515418776   10.1754062529
     H     6.1722931413    2.1157117484   12.0187562793
     H     8.1172678755   -0.7980643528    9.5325175034
     H     8.2403071666    0.8381331917    7.7000043010
     H     7.5076647805   -1.3268313304   11.6277304912
     H     7.1432212989   -2.4831576358   13.4073831452
     H     5.8212744103   -1.8749900203   14.4359827214
     H     7.4899333150   -1.4369379438   14.8040741015
     H     8.9531489773    4.1818426430    9.9371523684
     H    10.1070938717    6.5754244744    9.5954419895
     H     8.9550325387   10.1542771998    8.1139885222
     H    10.4070966666   11.5992624714    9.4612088726
     H    13.5536250986    8.6817854362    9.1920563670
     H    12.0806273388    7.2311388039    7.8209733222
     H    13.4155402437   12.6294286837   11.1595895507
     H    11.7011645213   12.1498759247   11.2873749304
     H    12.3142493981   12.8888293330    9.7779215409
     H     7.9118520101    6.7010357765    4.9747012812
     H     9.7498363611    8.7574947758    1.0676455231
     H     9.8668405099   10.3567157714   -0.7865370281
     H     5.6534075208   11.1180905694   -0.3909109801
     H     5.5442699871    9.4961193245    1.4819249274
     H     8.6463989064   12.7327940024   -3.2060446692
     H     9.2868081886   11.0916090842   -2.9128479728
     H     9.6812405779   12.4232120239   -1.7849835346
