38
-1.4024231253050548e+03 frame 112   xyz file generated by TeraChem
     C     1.6541743933   -0.7508168599    0.0133385655
     N     3.0792136675   -0.4555269221    0.0380203977
     C     4.0081694129   -1.4363508888    0.0191280771
     C     3.7452778352   -2.8047358400   -0.0363352640
     N     4.7949206797   -3.6262730924   -0.0244986986
     N     4.5131835404   -4.8870570531   -0.0757583590
     C     5.6239145901   -5.7109438750   -0.0679769902
     C     6.9718773214   -5.2790975499   -0.0296245200
     C     8.0025576325   -6.1901918555   -0.0264375305
     C     7.7482268386   -7.5843718040   -0.0609745193
     C     6.3979089857   -8.0067747680   -0.0988021435
     C     5.3638853242   -7.0963137772   -0.1033274294
     C     8.7465748107   -8.6070894942   -0.0606907840
     C    10.1212046995   -8.5413948871   -0.0357852344
     C    10.9029920767   -7.3526290474   -0.0057118544
     N    11.5774057995   -6.4043402752    0.0179137328
     C    10.8732819155   -9.7523714251   -0.0415408992
     N    11.4927278376  -10.7374879473   -0.0460051500
     S     5.6307087336   -0.8009657255    0.0653240081
     C     5.0058003279    0.8350728417    0.0827982673
     C     3.6038194671    0.8357923524    0.0548469689
     C     2.8996218692    2.0397725127    0.0461999261
     C     3.6261115806    3.2255003541    0.0763225012
     C     5.0237805781    3.2217704948    0.1120043716
     C     5.7289529422    2.0218927080    0.1143248247
     H     1.4362701779   -1.5544109495    0.7194418654
     H     1.3435551035   -1.0480116519   -0.9925364026
     H     1.0995583269    0.1345238812    0.3190180985
     H     2.7280809092   -3.1880024496   -0.0961394463
     H     7.1815563125   -4.2153023737   -0.0031831089
     H     9.0213445400   -5.8201405011    0.0042445674
     H     6.1789550458   -9.0716884354   -0.1248853879
     H     4.3293043270   -7.4254032802   -0.1332129776
     H     8.3542119229   -9.6220973254   -0.0849545600
     H     1.8158337094    2.0628980036    0.0100202561
     H     3.0908934659    4.1703447214    0.0692994976
     H     5.5671385701    4.1615670205    0.1345795740
     H     6.8143819914    2.0086010226    0.1377825835
