92
-2.3100596614424303e+03 frame 68   xyz file generated by TeraChem
     C     3.6809909385   -0.4902535292    1.6154889561
     O     2.9840828525    0.7201331431    1.3884565416
     C     3.4783205301    1.5679561736    0.4535125057
     C     4.6264974774    1.3270135819   -0.3051994699
     C     5.0463703754    2.2741417288   -1.2376801597
     C     4.3473925794    3.4672131165   -1.4364881139
     C     3.1947804040    3.6889218284   -0.6670634053
     C     2.7633153506    2.7571569703    0.2636796312
     C     4.8148669983    4.4782626296   -2.4257622037
     C     4.7642987229    4.1122733574   -3.7776527243
     C     4.3144477934    2.8648218452   -4.3121946349
     C     4.4625645068    2.9089403575   -5.6702759466
     C     4.9830205100    4.1948544876   -6.0190185969
     C     5.2829458110    4.6508618582   -7.3094925210
     C     5.7901957555    5.9270240083   -7.6248256641
     N     6.0642796508    6.9272385441   -6.7415375707
     C     6.5075263758    7.9673340458   -7.5025336720
     C     6.9211188657    9.2288975148   -7.0270431841
     C     6.9736149807    9.5921145207   -5.6726784928
     N     6.6473422122    8.8012777069   -4.6025160038
     C     6.8356214427    9.4778493857   -3.4264096284
     C     6.6116440208    8.9920639078   -2.1305914709
     C     6.0999907499    7.7190124677   -1.8162070666
     N     5.7391602258    6.7519001856   -2.7058035224
     C     5.2851906667    5.7169652862   -1.9455784975
     C     5.3663915948    6.0315050320   -0.5287267454
     C     5.8655463320    7.2863346277   -0.4484915965
     C     6.9561439406    9.9091095285   -1.0058920893
     C     8.0584114277    9.6485838224   -0.1891364466
     C     8.3991175708   10.4899211754    0.8683509547
     C     7.6229883886   11.6229113411    1.1257555045
     C     6.5146952164   11.8986415662    0.3154856477
     C     6.1907379878   11.0526687313   -0.7344279474
     O     7.8607818000   12.5038048655    2.1283489279
     C     8.9946811541   12.2802828588    2.9446948893
     C     7.3126606394   10.7793681716   -3.7757483263
     C     7.3784487756   10.8549524188   -5.1393569642
     C     7.3369027407   10.2606746200   -8.0148963812
     C     6.4276087838   10.7745680531   -8.9493632161
     C     6.8054712990   11.7373586243   -9.8749031154
     C     8.1214774615   12.2266292921   -9.9039184377
     C     9.0386104994   11.7132455596   -8.9727670437
     C     8.6484848210   10.7528496876   -8.0494184374
     N     8.4891575873   13.2313764395  -10.7843296092
     C     6.5268705506    7.6131145002   -8.9117804224
     C     6.0669092101    6.3428928979   -8.9892360957
     C     5.0494855194    3.6884464485   -8.4242078413
     C     3.7579823706    3.3143921980   -8.8007201440
     C     3.5310829758    2.4063500071   -9.8345788705
     C     4.6176797141    1.8514916026  -10.5149041630
     C     5.9193971669    2.2188934481  -10.1511726699
     C     6.1274021520    3.1233657555   -9.1223590762
     O     4.5185886145    0.9575308802  -11.5285935778
     C     3.2224845461    0.5576532200  -11.9323219380
     N     5.1463814466    4.8816086807   -4.8447115751
     H     3.1293342357   -1.0118903252    2.3990003321
     H     4.7071162047   -0.3040940049    1.9552474012
     H     3.7057118274   -1.1126292340    0.7125597479
     H     5.2021168035    0.4170868196   -0.1755155589
     H     5.9471926507    2.0822386332   -1.8150672345
     H     2.6296472039    4.6066744106   -0.8071736693
     H     1.8691343187    2.9294492455    0.8558577483
     H     3.9359104640    2.0446796002   -3.7192110561
     H     4.2318800553    2.1278844259   -6.3805067324
     H     6.3178108940    7.8443829160   -4.6803992563
     H     5.0803505450    5.3771724764    0.2832659064
     H     6.0612989600    7.8694599744    0.4409638509
     H     8.6685998377    8.7704613989   -0.3842381628
     H     9.2647612966   10.2543029227    1.4775353363
     H     5.9176397188   12.7805217831    0.5293451512
     H     5.3251478823   11.2748448499   -1.3532769814
     H     9.0120434786   13.0985196477    3.6661923509
     H     9.9201781344   12.2944438524    2.3561017472
     H     8.9200988499   11.3256989215    3.4796500293
     H     7.5598927638   11.5538370765   -3.0637036728
     H     7.6817544675   11.7036167078   -5.7353042667
     H     5.4008945981   10.4168856395   -8.9448479870
     H     6.0758209906   12.1242043506  -10.5829986390
     H    10.0659722147   12.0709179357   -8.9817737943
     H     9.3830248106   10.3628171654   -7.3489162885
     H     7.9305351495   13.2895470243  -11.6260488266
     H     9.4782753383   13.2755031553  -10.9928389059
     H     6.8518140132    8.2526502866   -9.7207267695
     H     5.9280495555    5.7383698389   -9.8751369648
     H     2.9056980775    3.7443339698   -8.2803677705
     H     2.5118427416    2.1460497711  -10.0989403481
     H     6.7551004647    1.7773058571  -10.6864991092
     H     7.1432120702    3.3944953374   -8.8462801619
     H     3.3684005189   -0.1598102113  -12.7411263723
     H     2.6385404222    1.4094082034  -12.3021932758
     H     2.6785781256    0.0750239997  -11.1112014507
     H     5.5014013143    5.8293057817   -4.7660485908
