53
-1.2345287770520736e+03 frame 86   xyz file generated by TeraChem
     C     1.3649291700   -1.6030794561    0.7463329632
     O     2.4143522813   -0.8867690996    0.1232932596
     C     3.0316996126    0.0810529850    0.8421725410
     C     2.7358737066    0.3879553717    2.1730521127
     C     3.4390725800    1.4036239703    2.8158437068
     C     4.4202813230    2.1450207745    2.1549767819
     C     4.7115792874    1.8165168283    0.8222449595
     C     4.0339031522    0.7976117660    0.1741407825
     C     5.1782420823    3.1902477837    2.8881999454
     N     5.6047505203    2.8048495218    4.0977676225
     C     6.3908972450    3.6137257059    4.8141129931
     C     6.7394356925    3.1143768873    6.1885489795
     C     5.6023273354    3.2737030557    7.2770253280
     C     6.6078970394    4.0717832890    8.0749483993
     C     7.6016853810    3.9595134993    7.1079045538
     C     6.8498458269    4.8266912088    4.3101709946
     C     6.3930315070    5.2611701527    3.0708543167
     C     5.4759047045    4.4669418198    2.3556419685
     C     4.8653934357    5.0507359097    1.1398577283
     C     3.5663811068    4.7381537325    0.7186327724
     C     3.0042559527    5.3319563263   -0.4061364503
     C     3.7589995286    6.2612371762   -1.1075190307
     C     5.0310956000    6.6316370118   -0.6986149014
     C     5.5849472886    6.0363058865    0.4339259003
     C     6.9275535790    6.4606427005    0.9615531356
     C     6.8506624264    6.5670171216    2.4824764040
    Br     2.9913560679    7.1032256841   -2.6963705976
     C     8.8596305014    4.5165582705    7.2714784270
     C     9.0807680017    5.2088119499    8.4697612468
     C     8.0663464122    5.3017348900    9.4217668750
     C     6.7970851001    4.7405600438    9.2735996779
    Br     8.4463992323    6.2792654102   11.0796363699
     H     0.9924972947   -2.3028045501   -0.0032948403
     H     0.5529157735   -0.9336676202    1.0552726010
     H     1.7245626575   -2.1627122292    1.6184202781
     H     1.9702176509   -0.1549704912    2.7163883990
     H     3.2171623510    1.6300939485    3.8548363747
     H     5.4876128284    2.3600722213    0.2902466074
     H     4.2661191681    0.5348843491   -0.8538793625
     H     7.5468333715    5.4348649015    4.8797817574
     H     7.0733511862    2.0729292128    6.1118303445
     H     5.2659734126    2.3341259271    7.7266430543
     H     4.7297151446    3.8347844880    6.9270165707
     H     2.9720087529    4.0256142095    1.2800457212
     H     1.9967968554    5.0763883318   -0.7171382195
     H     5.5916286419    7.3866550973   -1.2415047384
     H     7.2279797787    7.4150647795    0.5182698124
     H     7.6931896669    5.7198353323    0.6883732973
     H     6.1392717476    7.3605800339    2.7553145426
     H     7.8198003466    6.8472109069    2.9079388423
     H     9.6529301184    4.4364217280    6.5330361584
     H    10.0433483754    5.6708500893    8.6631906542
     H     6.0372236048    4.8312174529   10.0431902290
