70
-2.6089069440623198e+03 frame 86   xyz file generated by TeraChem
     C     2.6722007265    0.4716079053   -1.1333806920
     O     3.7530137892    0.1322094747   -0.2831314548
     C     4.3276020308    1.1228024503    0.4357711884
     C     3.9212667988    2.4600490235    0.4100744201
     C     4.5767874342    3.3979037203    1.2040598048
     C     5.6498761380    3.0180162388    2.0055362251
     C     6.0652690836    1.6828192090    2.0206376501
     C     5.4015134226    0.7421087025    1.2517030791
     N     6.3232097013    3.9787713453    2.8031129212
     C     6.6295355973    3.8691751957    4.1432256862
     C     6.4043348484    2.9138157111    5.1580966409
     C     6.9078121795    3.3391422700    6.3691241430
     S     7.6691424092    4.9255728895    6.2633328872
     C     7.2923998255    5.0271785156    4.5808570036
     C     7.3984664007    5.8784578541    3.4745650447
     C     6.7898869126    5.2128259772    2.3864177568
     C     6.8307508452    5.9192072917    1.1835654120
     C     7.4592953098    7.1552750645    1.3373894140
     S     8.0288059735    7.4006825103    2.9959287867
     C     7.7817731675    8.1690212283    0.3901343582
     C     7.2750966596    8.4259020957   -0.8609372901
     C     6.0964728877    7.8248740899   -1.5411520986
     O     5.9822013199    7.8042218143   -2.7453278834
     O     5.1101046400    7.3408893936   -0.7690836471
     C     7.9437030887    9.4086221487   -1.6471519352
     N     8.4940872958   10.2178093216   -2.2766972425
     C     6.8822637060    2.6295223365    7.6408295490
     C     6.7619164028    1.2294889329    7.6757835643
     C     6.7312386484    0.5374177373    8.8739117995
     C     6.8169942928    1.2189348309   10.1000784933
     C     6.9375548901    2.6182068322   10.0734420200
     C     6.9727658516    3.3024256217    8.8701318543
     N     6.7878975897    0.5233613445   11.3148490523
     C     7.4969102091    1.0103366723   12.4418908652
     C     6.8897827261    1.0189971441   13.7028917493
     C     7.5915547401    1.4789208781   14.8125507363
     C     8.8964028914    1.9504823617   14.6783710185
     C     9.4989822394    1.9484343309   13.4211271475
     C     8.8110407136    1.4737253896   12.3091610205
     C     6.0529481308   -0.6822811275   11.4394289218
     C     6.6158683888   -1.7838360694   12.0941727765
     C     5.8882349047   -2.9615077733   12.2313470741
     C     4.6011154553   -3.0630136712   11.7057638131
     C     4.0424007582   -1.9680995498   11.0481938384
     C     4.7558206999   -0.7806075340   10.9221723233
     H     2.3732909345   -0.4565246924   -1.6220954411
     H     2.9765803123    1.2021696860   -1.8923252774
     H     1.8262775558    0.8712739896   -0.5612916817
     H     3.0918461366    2.7818905178   -0.2095725337
     H     4.2399946116    4.4307619982    1.2014307464
     H     6.9151515229    1.3865748180    2.6286762995
     H     5.7118476604   -0.2984066917    1.2552700183
     H     5.8759888803    1.9772523813    5.0265049389
     H     6.4676658028    5.5436123187    0.2345682063
     H     8.5796990163    8.8414203989    0.7033423575
     H     5.2792795907    7.5197409726    0.1725157876
     H     6.7282553875    0.6689042111    6.7457745912
     H     6.6583232231   -0.5454489931    8.8649368721
     H     6.9888307914    3.1709777620   11.0058918345
     H     7.0374140595    4.3878993143    8.8915429559
     H     5.8686151434    0.6634827223   13.8060873258
     H     7.1082411258    1.4801341741   15.7860073086
     H     9.4395702014    2.3146595032   15.5458438652
     H    10.5189674381    2.3050508127   13.3042984031
     H     9.2879544957    1.4565335411   11.3334210738
     H     7.6235282053   -1.7107475408   12.4930837021
     H     6.3375246763   -3.8092515724   12.7419862934
     H     4.0381526564   -3.9863482454   11.8091413027
     H     3.0362886912   -2.0304811398   10.6418562537
     H     4.3114171174    0.0767467775   10.4247599004
