101
-2.7089720795281082e+03 frame 46   xyz file generated by TeraChem
     C     1.4481381444   -0.1727556986   -0.6655540887
     O     2.8055429680   -0.1273589220   -0.2641284306
     C     3.3846030281    1.0901502609   -0.1436321423
     C     2.7275331962    2.3070798820   -0.3265102068
     C     3.4097908898    3.5104173651   -0.1540333780
     C     4.7585198015    3.5319710190    0.2058684339
     C     5.4143308820    2.3042300812    0.3779031932
     C     4.7513789061    1.0986578552    0.2057535316
     O     5.4283006978   -0.0704412674    0.4265528176
     C     5.7014799773   -0.8267137523   -0.7489122650
     C     5.4839431986    4.8168658649    0.3993201845
     C     5.6241840369    5.6810283637   -0.7051332811
     C     5.1924829119    5.3199484330   -2.0452327333
     C     5.4893949789    6.3772825323   -2.8356703654
     C     6.1016504818    7.3713841522   -1.9706276332
     N     6.1830774367    6.9233980430   -0.6870939404
     C     6.5700501082    8.6103052789   -2.4519669487
     C     7.2631961021    9.5606757887   -1.6907165197
     C     7.7604553350   10.8220168672   -2.1453722348
     C     8.4048895674   11.4242350441   -1.1014625184
     C     8.3057383597   10.5638234854    0.0366617643
     C     8.8353015813   10.7991256951    1.3127347817
     C     8.7318380527    9.9177276360    2.4073178285
     N     8.1014318116    8.7102738385    2.4095611309
     C     8.2334341540    8.2389592260    3.6811366799
     C     7.7230784323    7.0220613359    4.1732470910
     C     7.0073934150    6.0827644281    3.4170729410
     N     6.7241568872    6.1513302747    2.0788628471
     C     5.9756925048    5.0729175353    1.6876926544
     C     5.7705959732    4.2726310799    2.8544568230
     C     6.3969960027    4.8852960513    3.9036857762
     C     7.9304948849    6.6931230761    5.6117167973
     C     8.7322501836    5.6151147989    5.9965968643
     C     8.9122627737    5.3028770612    7.3412346220
     C     8.2874706576    6.0564416541    8.3335166823
     C     7.4829812048    7.1476243754    7.9599632964
     C     7.3155212639    7.4528065673    6.6156828075
     O     6.8068016477    7.8703784596    8.9051556437
     C     7.6251162309    8.7502017694    9.6690665355
     O     8.4023405698    5.7858146178    9.6568661227
     C     8.9842987550    9.1680941053    4.5090087114
     C     9.2834662245   10.2233094331    3.7169323713
     C     9.5548916004   12.0899865536    1.5061897297
     C     8.8706841483   13.3079307155    1.4660839985
     C     9.5464478826   14.5120793178    1.6416379932
     C    10.9231718078   14.5279211184    1.8594388627
     C    11.6222551593   13.3087937367    1.9125041131
     C    10.9367252867   12.1137485880    1.7355078862
     O    12.9811424368   13.2825335194    2.0729635200
     C    13.4285403288   13.6460644483    3.3753350617
     O    11.6366670018   15.6705447802    2.0169724953
     N     7.6098401387    9.4561813295   -0.3695306067
     C     6.3249154189    8.9464481096   -3.8827295721
     C     7.3773570807    9.0439326683   -4.7973263382
     C     7.1371169673    9.3534121522   -6.1331712619
     C     5.8377922157    9.5763470341   -6.5865268252
     C     4.7706627410    9.4820236743   -5.6763622251
     C     5.0217174006    9.1673653935   -4.3475598031
     O     3.4912497908    9.7564908418   -6.0802278408
     C     2.8696756337    8.6921477245   -6.7916612168
     O     5.5382929802    9.8926841442   -7.8699557215
     H     1.1901193237   -1.2308308659   -0.7264237193
     H     1.3077119398    0.2961591580   -1.6468048618
     H     0.7987253556    0.3185247599    0.0688838484
     H     1.6758014700    2.3277982520   -0.5911262354
     H     2.8748429786    4.4464584058   -0.2887972088
     H     6.4673843814    2.2734172521    0.6438854656
     H     6.2597356961   -1.7069972708   -0.4233419709
     H     6.3144938740   -0.2452557171   -1.4485784861
     H     4.7778294936   -1.1420547370   -1.2439118857
     H     4.7483222492    4.3774597937   -2.3343879781
     H     5.3343108051    6.4760051022   -3.9013810336
     H     7.6394796787   11.2035714003   -3.1490838077
     H     8.9081659606   12.3804036918   -1.1067466081
     H     6.9924719299    6.9191992718    1.4720878574
     H     5.1976260556    3.3568287667    2.8785583414
     H     6.4248988794    4.5572763250    4.9328895375
     H     9.2256230536    5.0143087508    5.2376560825
     H     9.5390658327    4.4605349523    7.6274474017
     H     6.6757556551    8.2924526637    6.3582656021
     H     6.9636018333    9.2389360626   10.3873967231
     H     8.0852837044    9.5084151928    9.0230712880
     H     8.4069673424    8.2036948355   10.2065842606
     H     8.9754343193    5.0127339647    9.7714960362
     H     9.2385544656    9.0254229945    5.5503715142
     H     9.8229869733   11.1221539249    3.9821635352
     H     7.7968392976   13.3166469161    1.3009744908
     H     9.0030593674   15.4543778436    1.6074589764
     H    11.5069599818   11.1895009656    1.7680939611
     H    14.5167733968   13.5559782951    3.3615427690
     H    13.0171146166   12.9644320243    4.1303320001
     H    13.1503628609   14.6758137388    3.6207612381
     H    11.0342680138   16.4279244036    1.9631814547
     H     7.3790527769    8.6685663782    0.2274894062
     H     8.3970502974    8.8677257407   -4.4657814627
     H     7.9656319465    9.4241658118   -6.8352804528
     H     4.1768780921    9.1098026567   -3.6665342342
     H     1.8658907953    9.0370177435   -7.0490344475
     H     2.7966386231    7.7943811227   -6.1647826870
     H     3.4186674561    8.4531829409   -7.7091848543
     H     6.3565540962    9.9138239763   -8.3890754597
