57
-1.3238438618414734e+03 frame 53   xyz file generated by TeraChem
     C     1.2745391217    0.1434447951   -1.0930128653
     O     2.3967439615    0.7440581568   -0.4730550358
     C     2.9131379561    0.1310024571    0.6178720857
     C     2.4020575901   -1.0314255002    1.1957439003
     C     3.0214051255   -1.5920882041    2.3111797893
     C     4.1459576425   -1.0010206771    2.8877371842
     C     4.6572003912    0.1643017945    2.2980695363
     C     4.0602675585    0.7265675549    1.1829395551
     O     4.6245901758    1.8309094173    0.5988728490
     C     3.9376261160    3.0445327736    0.8823685533
     C     4.8254497637   -1.6518215507    4.0363922075
     N     4.9723613781   -2.9789951790    3.9014378241
     C     5.6467187603   -3.6612579781    4.8187261702
     C     5.8142324416   -5.1389338024    4.5936284693
     C     7.2369718958   -5.5500526222    4.9605328475
     C     7.5022735609   -5.1750861152    6.3929241752
     C     6.9901411470   -3.9504564132    6.8757311011
     C     6.2746347937   -3.0613103128    5.9312205749
     C     6.1822039667   -1.6640100897    6.0419546903
     C     5.3616231557   -0.9535206576    5.1359048043
     C     5.1000943513    0.4783193493    5.4162588817
     C     3.8664217642    1.0876121036    5.1511673678
     C     3.6576533103    2.4302535997    5.4484685262
     C     4.6773373363    3.1845405945    6.0274072278
     C     5.8901388579    2.5759698991    6.3394819628
     C     6.1052881642    1.2291003772    6.0517319451
     C     7.3567675874    0.5022045147    6.4468416987
     C     6.9750671632   -0.8543229660    7.0393372275
     C     7.1229720133   -3.6646038701    8.2420019334
     C     7.8035538797   -4.5271846608    9.0964815254
     C     8.3555536928   -5.7048831808    8.6010562224
     C     8.1873956896   -6.0268783923    7.2561827482
     H     1.0347376634    0.7722565670   -1.9516169982
     H     0.4136058454    0.1090695050   -0.4144691200
     H     1.5068829080   -0.8715966709   -1.4367693184
     H     1.5241640633   -1.5113741872    0.7770242131
     H     2.6248019360   -2.5073257498    2.7400625368
     H     5.5462506534    0.6453313550    2.6942437790
     H     4.4901121937    3.8386004088    0.3751612098
     H     3.9262281212    3.2407382958    1.9622244795
     H     2.9093659717    3.0181989511    0.5053890321
     H     5.1017746475   -5.6978209656    5.2185570012
     H     5.5819863304   -5.3621969166    3.5486524565
     H     7.9445865540   -5.0364732384    4.2926965578
     H     7.3841190435   -6.6255850540    4.8170436231
     H     3.0613856257    0.5045600256    4.7151079274
     H     2.6935459786    2.8850942116    5.2362830687
     H     4.5194433405    4.2350035094    6.2574947408
     H     6.6787616488    3.1467803688    6.8252498105
     H     7.9294786027    1.0871755312    7.1737848035
     H     8.0053925127    0.3444680909    5.5728115342
     H     6.3897776597   -0.6883220327    7.9556258250
     H     7.8741962996   -1.4043687321    7.3316073246
     H     6.6625679087   -2.7741731243    8.6557402000
     H     7.8901780243   -4.2811403794   10.1514634313
     H     8.8903571542   -6.3823681826    9.2614768808
     H     8.5805175667   -6.9641853542    6.8681161212
