28
-1.1623638200355747e+03 frame 28   xyz file generated by TeraChem
     C     1.6647240841    0.7623386646   -0.7755771655
     O     2.7970321099    0.1532213476   -0.1764495944
     C     3.3378351546   -0.9192635183   -0.7847621223
     C     4.4830226808   -1.4596794110   -0.1633597841
     C     5.1099070853   -2.5558257958   -0.7108015514
     C     4.6212048758   -3.1563929902   -1.8879549985
     C     3.4820858346   -2.5987533172   -2.4814492951
     C     2.8308705867   -1.4889698512   -1.9522660822
     O     2.9688113547   -3.1330228367   -3.6194235551
     C     3.5084947036   -4.2290000089   -4.2585968395
     O     2.9422292281   -4.5978891978   -5.2644460536
     C     4.6985140119   -4.8326440113   -3.6605077049
     C     5.2162189765   -4.2855988103   -2.5235562952
     C     5.2884901678   -6.0168450681   -4.3005567546
     C     5.9261006151   -7.0106628474   -3.5947929230
     S     6.5599502927   -8.2294623888   -4.6227461919
     C     5.9736513648   -7.4242035817   -6.0292981174
     C     5.3164036158   -6.2736711904   -5.7120383966
     H     1.4101343017    1.6096960658   -0.1382294820
     H     0.8178503067    0.0677654726   -0.8176126492
     H     1.8973408051    1.1190174202   -1.7855352342
     H     4.8509594405   -0.9909547868    0.7437070634
     H     5.9942674707   -2.9738562938   -0.2372841623
     H     1.9545249453   -1.1021724697   -2.4583203949
     H     6.1191649418   -4.7061949324   -2.0866559283
     H     6.0310918487   -7.0999019984   -2.5209390737
     H     6.1487993548   -7.8468825010   -7.0102942880
     H     4.8642853907   -5.6194748243   -6.4462980624
