59
-1.3752092799286916e+03 frame 63   xyz file generated by TeraChem
     N     2.8308348004    2.3021032461   -0.2695127765
     C     2.2465067788    1.3006182700   -0.1379181434
     C     1.5181346393    0.1000439746    0.0205368467
     C     0.1096824315    0.0995110627    0.0478143219
     C    -0.6391761921   -1.0989360959    0.2099703413
     C    -2.0069775409   -1.0722285460    0.2367065521
     C    -2.8383617496   -2.2290725220    0.4077059514
     C    -4.1927417774   -2.1800574919    0.4698830789
     C    -5.1079520977   -3.2817320723    0.6448794306
     C    -4.7126374570   -4.6304565600    0.7492267507
     C    -5.6300358030   -5.6459858287    0.9211839277
     C    -7.0206520936   -5.3723581455    1.0023453477
     C    -7.4231512638   -4.0191637119    0.8947819914
     C    -6.4884787886   -3.0172833340    0.7207647483
     N    -7.9299446853   -6.3733740227    1.1758917606
     C    -7.4907347548   -7.7494196593    1.2696290286
     C    -9.3420212438   -6.0640433714    1.2508987082
     O    -2.6791208696    0.0981503777    0.0998152643
     C    -2.0135643827    1.2693706694   -0.0598510076
     C    -0.6457660980    1.2974270522   -0.0847672307
     C    -2.8516185213    2.4260396487   -0.1961603212
     C    -4.2073411444    2.3766299307   -0.2087692521
     C    -5.1283985445    3.4792465829   -0.3428527992
     C    -4.7375369112    4.8297916379   -0.4403143763
     C    -5.6604725692    5.8463575810   -0.5720440460
     C    -7.0525352258    5.5719186716   -0.6178803651
     C    -7.4505325291    4.2169965747   -0.5151700605
     C    -6.5103474887    3.2141440922   -0.3811162226
     N    -7.9675095330    6.5736532518   -0.7537351919
     C    -7.5335085368    7.9525532232   -0.8286184301
     C    -9.3812151300    6.2639670771   -0.7834050752
     C     2.2530099815   -1.1000006378    0.1500882499
     N     2.8432664488   -2.1008257901    0.2581904119
     H    -0.1399204947   -2.0554027657    0.3198829659
     H    -2.2978062076   -3.1674752807    0.4946149013
     H    -4.6631292542   -1.2011682177    0.3858178391
     H    -3.6592446025   -4.8915573715    0.6918344031
     H    -5.2716585021   -6.6665262563    0.9939334423
     H    -8.4732187900   -3.7553957988    0.9470124046
     H    -6.8314163687   -1.9875989191    0.6409206770
     H    -6.9689195222   -8.0721485878    0.3588315135
     H    -8.3603967000   -8.3923446627    1.4076087371
     H    -6.8161797412   -7.9019307708    2.1225105117
     H    -9.7013568603   -5.5843739804    0.3305649015
     H    -9.5642913728   -5.3957503294    2.0932497701
     H    -9.9034589571   -6.9877927871    1.3933715577
     H    -0.1519166234    2.2544969696   -0.2123101814
     H    -2.3151456534    3.3651336834   -0.2990764623
     H    -4.6742086962    1.3969851415   -0.1143451039
     H    -3.6832278076    5.0916227997   -0.4081912926
     H    -5.3052921941    6.8683448813   -0.6400419271
     H    -8.5015231207    3.9527937782   -0.5385285713
     H    -6.8499973560    2.1832019603   -0.3035067057
     H    -6.8728626284    8.1216364002   -1.6889432197
     H    -6.9983050836    8.2608718402    0.0795538877
     H    -8.4069186871    8.5951624345   -0.9424234885
     H    -9.7125385686    5.7852560458    0.1481147799
     H    -9.6286561639    5.5948202123   -1.6177150619
     H    -9.9468775580    7.1874117166   -0.9102785332
