52
-2.5255510123734930e+03 frame 81   xyz file generated by TeraChem
     C     3.9542247513    0.7372204425   -1.2227574621
     N     4.2180486558    0.1386554646    0.0763184821
     C     4.6547513529   -1.1386684770    0.1827559851
     C     4.9041417938   -1.9986333186   -0.8799126038
     N     5.3215197832   -3.2361138313   -0.5845498850
     N     5.5330073398   -4.0040925201   -1.5966358611
     C     5.9682361144   -5.2798109812   -1.2587995648
     C     6.2023944427   -5.7531447206    0.0510349702
     C     6.6391252425   -7.0424327690    0.2725268529
     C     6.8618586175   -7.9334227375   -0.8047052641
     C     6.6185258478   -7.4506660598   -2.1126812739
     C     6.1883100976   -6.1593145730   -2.3355235006
     C     7.3054379517   -9.3006960436   -0.7146015011
     C     7.6922003266  -10.1327118471    0.2976165769
     S     8.1593575965  -11.7964975292   -0.0926025307
     C     8.5328801266  -12.1838301907    1.5591237482
     S     9.0767827834  -13.6741488946    2.0339111207
     N     8.3096392230  -11.0971215669    2.3560683133
     C     7.8367804145   -9.9171104737    1.7386312638
     O     7.6177545355   -8.9123206481    2.3924179855
     C     8.5403117643  -11.1166737968    3.7681945733
     C     7.5088253936  -11.4722994203    4.6317379593
     C     7.7282360184  -11.4787792790    6.0037492136
     C     8.9837728649  -11.1268889912    6.5096742161
     C    10.0151339342  -10.7646969975    5.6361427535
     C     9.7911567228  -10.7590820965    4.2672273369
     O     9.2603984293  -11.1173809145    7.8330414958
     S     4.8797824801   -1.6132984449    1.8476211942
     C     4.3750748149   -0.0231006205    2.3853009426
     C     4.0581532451    0.7983800125    1.2936101939
     C     3.6392126588    2.1121083463    1.5021753472
     C     3.5408174889    2.5727020332    2.8114476451
     C     3.8528072673    1.7498686250    3.8971724988
     C     4.2755208570    0.4394102191    3.6919910368
     H     3.2562922301    0.1092613807   -1.7825618277
     H     4.8858420273    0.8422386448   -1.7863437504
     H     3.5061528077    1.7188711790   -1.0849779127
     H     4.7668356731   -1.6812595605   -1.9122778247
     H     6.0336411004   -5.0841767665    0.8883887484
     H     6.8161662944   -7.3859373254    1.2842327931
     H     6.7771600532   -8.1147086893   -2.9592602447
     H     6.0079163308   -5.7979870375   -3.3440563476
     H     7.3388054744   -9.7766861058   -1.6953716377
     H     6.5365970961  -11.7449085195    4.2313749594
     H     6.9276837709  -11.7563758897    6.6854349033
     H    10.9834753799  -10.4912464513    6.0439972344
     H    10.5866432159  -10.4805217239    3.5819971548
     H     8.4742044095  -11.3908111707    8.3311197104
     H     3.3976072978    2.7689585327    0.6736521078
     H     3.2154046107    3.5939921585    2.9858887439
     H     3.7677274243    2.1326512744    4.9097335927
     H     4.5220726058   -0.2077634338    4.5283227603
