65
-2.7738947391500215e+03 frame 62   xyz file generated by TeraChem
     C    -1.5447320240   -0.6317297880   -8.5484299602
     O    -0.6785326152    0.4870648648   -8.4803976067
    Si     0.9669273863    0.3257117733   -8.3331280163
     C     1.4673921174   -0.8550104922   -6.9737519791
     C     1.7563712997   -2.2869902833   -7.4407349252
     C     2.0416816487   -3.2000834189   -6.2545159591
     S     2.5393654586   -4.8496338804   -6.8455502538
     C     2.2338285463   -5.7734560847   -5.3628534309
     O     1.8014220582   -5.2839915062   -4.3387676763
     C     2.5643458847   -7.2285519810   -5.4738746027
     N     3.1301120218   -7.6151251376   -6.6167449444
     C     3.4771451554   -8.8905521269   -6.7572297140
     C     3.2849800391   -9.8399108314   -5.7546880675
     C     2.6923225618   -9.4377107391   -4.5655852090
     C     2.3085187941   -8.1043509642   -4.4103190971
     C     1.5863970172   -7.7053223399   -3.1532071968
     O     0.3781076768   -7.6705345320   -3.0870705849
     S     2.6864866290   -7.4440545295   -1.7872950693
     C     1.4926401479   -7.1009839452   -0.4546521041
     C     1.9207145591   -7.7399563561    0.8609828765
     C     0.8623901973   -7.5176607452    1.9467201598
    Si     1.2972409223   -8.3032614216    3.5821893366
     O    -0.1013220947   -8.2766717379    4.4688466721
     C    -0.1453172314   -8.7381461986    5.8112203165
     O     1.8613696380   -9.8502892718    3.4170022707
     C     1.0184383090  -10.8760270816    2.9200368544
     O     2.5533427390   -7.5576994247    4.3558930526
     C     2.5250513539   -6.1684891133    4.6380444894
     O     1.6323569060   -0.2181775297   -9.7407286593
     C     1.4760084187    0.4891676940  -10.9612959362
     O     1.5145369115    1.8697379564   -8.1156186209
     C     1.1123534301    2.6739782194   -7.0208865258
     H    -2.5708245801   -0.2635393368   -8.6378159419
     H    -1.4767442012   -1.2497831858   -7.6435265858
     H    -1.3233794162   -1.2600113550   -9.4203186498
     H     0.6754137142   -0.8618409130   -6.2113290720
     H     2.3582489018   -0.4422381088   -6.4805381992
     H     2.6102805653   -2.2799219507   -8.1281177044
     H     0.9072419401   -2.6895216987   -8.0068508857
     H     1.1578240065   -3.3204894440   -5.6214753680
     H     2.8491091684   -2.7979057022   -5.6335130200
     H     3.9315611357   -9.1673094578   -7.7058501216
     H     3.5916439743  -10.8697827830   -5.9062706626
     H     2.5205475691  -10.1486523710   -3.7619956919
     H     0.5328508318   -7.4996219909   -0.7988619732
     H     1.3940244577   -6.0156661475   -0.3536228694
     H     2.8840148265   -7.3240692355    1.1824146722
     H     2.0801651241   -8.8140952404    0.7089541082
     H    -0.1020926816   -7.9278138827    1.6164857520
     H     0.6935073939   -6.4427956482    2.1005086213
     H    -1.1530070618   -8.5613996152    6.1970348268
     H     0.5726643778   -8.2010452452    6.4423146296
     H     0.0706177776   -9.8117070393    5.8696163827
     H     1.5932529367  -11.8060955767    2.9010920373
     H     0.6774400909  -10.6595349147    1.8990699224
     H     0.1391898917  -11.0203901313    3.5595389932
     H     3.4267433768   -5.9206145412    5.2046540236
     H     1.6492356323   -5.8951929359    5.2395530075
     H     2.5193959028   -5.5729909565    3.7163975439
     H     1.8884193545   -0.1265921365  -11.7654586516
     H     2.0150624880    1.4427087450  -10.9323358458
     H     0.4190128785    0.6867813097  -11.1760098926
     H     1.6049763964    3.6459275446   -7.1139126558
     H     1.4103607264    2.2247092274   -6.0644499063
     H     0.0269740685    2.8288044226   -7.0159965625
