36
-1.8156263951756221e+03 frame 59   xyz file generated by TeraChem
     C     2.2898731850    0.3967412951   -3.6692764011
     O     2.0931166436    0.5466628843   -2.2734750310
    Si     2.6963723570   -0.5213543402   -1.1596700569
     C     2.2921467324   -2.2971045210   -1.5518037895
     C     2.9900091113   -3.2966569303   -0.6225645296
     C     2.6045489840   -4.7286881058   -0.9714208754
     S     3.5010121899   -5.8891532587    0.1080165236
     C     2.7952909605   -7.4215727175   -0.4750324676
     O     1.9378688732   -7.4517025357   -1.3415103379
     C     3.3202799657   -8.6292836699    0.1597113045
     C     4.2788961310   -8.7872617300    1.1360032574
     C     4.4965334273  -10.1445942889    1.4716887228
     C     3.7018751447  -10.9945922519    0.7450633690
     S     2.6836577495  -10.1597651591   -0.3504452838
     O     4.3370325860   -0.4047170922   -1.0258424180
     C     4.9873240208    0.8222227641   -0.7362768160
     O     2.1004184930   -0.0074355160    0.2958135674
     C     0.7155505115    0.1694200986    0.5365690928
     H     1.8775293039    1.2790494162   -4.1668102199
     H     1.7733668683   -0.4916956528   -4.0532216665
     H     3.3549726526    0.3221594087   -3.9214319009
     H     2.5628641828   -2.5072144276   -2.5958079097
     H     1.2014852570   -2.4216816187   -1.4900403244
     H     2.7240178695   -3.0883795853    0.4213604613
     H     4.0765038379   -3.1732994180   -0.7012863282
     H     2.8575204821   -4.9651860132   -2.0092608652
     H     1.5323661402   -4.8982739121   -0.8366021504
     H     4.8084037888   -7.9586897893    1.5951536509
     H     5.2094122544  -10.4798156550    2.2169035217
     H     3.6633626130  -12.0757417714    0.7981421083
     H     6.0667082336    0.6503970321   -0.7711366103
     H     4.7179263901    1.1830402776    0.2627976112
     H     4.7292384545    1.5940080069   -1.4713657922
     H     0.5908814430    0.5115415807    1.5679314959
     H     0.1638766240   -0.7719452817    0.4155495867
     H     0.2851715891    0.9191730354   -0.1374292919
