70
-2.1779005737260131e+03 frame 63   xyz file generated by TeraChem
     C    -0.1656181889    2.4376495344   -0.0855072357
     N    -0.0922264238    0.9882204095   -0.0938512295
     C     1.1036440327    0.3812767105    0.3102697587
     C     2.1001227236    1.0925567299    0.9964904484
     C     3.2884259205    0.4818180317    1.3670603752
     C     3.5243116560   -0.8750831397    1.1011720434
     C     2.5154005410   -1.5899880947    0.4360834621
     C     1.3399168660   -0.9761886090    0.0305298990
     S     0.1700906074   -1.8717138977   -0.9490181619
     C    -1.3058369639   -1.1072640006   -0.3438164091
     C    -1.2891987639    0.2637304237   -0.0326339838
     C    -2.5001269387    0.8661162480    0.3423514220
     C    -3.6788799135    0.1375241378    0.3819657552
     C    -3.6999471110   -1.2319690366    0.0785079004
     C    -2.4812865441   -1.8389843488   -0.2645021102
     C    -4.9026273256   -2.0527521281    0.1149177842
     C    -6.1731383517   -1.6212085614    0.2498986226
     C    -7.3273352643   -2.5122055893    0.3179269670
     C    -7.2358621126   -3.7682171619    0.8451399147
     C    -8.3570194706   -4.6700620166    0.9279651878
     O    -8.3342691951   -5.8011126604    1.3688121061
     O    -9.5716175663   -4.1944484209    0.4826983493
     C    -9.7106179137   -2.9484634276   -0.0448340256
     C    -8.6261010642   -2.0663830615   -0.1611372701
     C    -8.8772928813   -0.8148270275   -0.7528061579
     C   -10.1450210726   -0.4665427186   -1.1786418360
     C   -11.2262789718   -1.3556152828   -1.0404507502
     C   -10.9908367875   -2.6017229565   -0.4715366173
     C   -12.5990262817   -0.9639662372   -1.5053458870
     C     4.7453467044   -1.5787270820    1.4693141933
     C     5.7713492657   -1.1007842632    2.2026403300
     C     6.9777260303   -1.8686488910    2.4964387323
     C     7.4569728252   -2.8117299998    1.6336755755
     C     8.6430403441   -3.5870039672    1.8959467478
     O     9.1048987206   -4.4501826068    1.1782378646
     O     9.3235215485   -3.3079329679    3.0619102168
     C     8.8900358096   -2.3686831769    3.9461381474
     C     7.7213390889   -1.6254500473    3.7225013285
     C     7.3452135410   -0.7033952922    4.7157432799
     C     8.1116816890   -0.5235185311    5.8512533376
     C     9.2904450827   -1.2636430572    6.0540561619
     C     9.6672288077   -2.1904012643    5.0887743457
     C    10.1111983275   -1.0594325144    7.2943935995
     H     0.7662663375    2.8418796904   -0.4861190986
     H    -0.3325635684    2.8552911649    0.9170828035
     H    -0.9797670543    2.7542364678   -0.7406965134
     H     1.9461320201    2.1360073169    1.2482210496
     H     4.0367387651    1.0782372612    1.8805228427
     H     2.6643079483   -2.6439666444    0.2134039854
     H    -2.5221611564    1.9142637198    0.6199536511
     H    -4.5897128499    0.6455322412    0.6852423822
     H    -2.4586368972   -2.9008735571   -0.4982549693
     H    -4.7305613231   -3.1218295788   -0.0091044748
     H    -6.3774119753   -0.5546948762    0.2968656264
     H    -6.3088677813   -4.1423681833    1.2647232919
     H    -8.0608125037   -0.1125351455   -0.8874281340
     H   -10.3104587066    0.5076576194   -1.6316529030
     H   -11.7920701619   -3.3256283182   -0.3535551268
     H   -12.9570396216   -0.0792482980   -0.9655707352
     H   -13.3198418060   -1.7716152464   -1.3519796426
     H   -12.5924503996   -0.7076515408   -2.5711876635
     H     4.7979477138   -2.6103486874    1.1218375125
     H     5.7177328045   -0.0984847343    2.6196238831
     H     6.9800689164   -3.0039520388    0.6792567996
     H     6.4328447822   -0.1284639821    4.5944058512
     H     7.7988298562    0.1977593650    6.6019440153
     H    10.5654551416   -2.7899296924    5.2069032678
     H    10.3937231674   -0.0064832880    7.4076676068
     H    11.0252872101   -1.6592620965    7.2754871977
     H     9.5408590938   -1.3360951436    8.1892056257
