48
-1.5660272738892954e+03 frame 44   xyz file generated by TeraChem
     C    -0.2039167072    3.1143998406    0.8856778583
     N    -0.0798807876    1.8101278096    0.2641257795
     C     1.0818006705    1.0698337206    0.5034294057
     C     1.9774575120    1.4028356747    1.5326308951
     C     3.1383694033    0.6729500891    1.7336320082
     C     3.4443180558   -0.4429459018    0.9397251386
     C     2.5344901986   -0.7889481851   -0.0726069458
     C     1.3897612394   -0.0409636930   -0.3026396839
     S     0.3563139940   -0.4040506682   -1.6923092051
     C    -1.2011574174    0.0376197072   -0.9757213166
     C    -1.2610755334    1.1334300310   -0.0984845024
     C    -2.5122889938    1.5211684023    0.3946559582
     C    -3.6690686807    0.8527971878   -0.0008016878
     C    -3.5984520916   -0.2344417765   -0.8649903854
     C    -2.3556469726   -0.6497150699   -1.3382167153
     C     4.6426938994   -1.2531157512    1.1030785451
     C     5.5937344653   -1.1221478985    2.0507921932
     C     6.7854911945   -1.9610111614    2.1189987334
     C     7.3417112479   -2.5129490018    1.0008834117
     C     8.5148299520   -3.3494373567    1.0318855392
     O     9.0385771593   -3.8813204414    0.0737178494
     O     9.1057287467   -3.5443688462    2.2598385306
     C     8.5908424803   -3.0088044466    3.3998984935
     C     7.4337943027   -2.2170442816    3.3984174448
     C     6.9663201924   -1.7381305192    4.6356287015
     C     7.6239834425   -2.0105551272    5.8276050892
     C     7.1118334662   -1.4856646207    7.1399607624
     C     8.7878765039   -2.7970684039    5.7798676653
     C     9.2698217666   -3.2965397086    4.5824077663
     H     0.7467172835    3.6435217321    0.7901351768
     H    -0.4771351044    3.0660241339    1.9494705403
     H    -0.9657546817    3.6875871522    0.3529723006
     H     1.7619246263    2.2410406505    2.1859423917
     H     3.8089556832    0.9747969749    2.5326667030
     H     2.7409536813   -1.6481379874   -0.7065036575
     H    -2.5890494695    2.3468068359    1.0937477322
     H    -4.6288581021    1.1829838961    0.3867729618
     H    -4.4984280023   -0.7612559755   -1.1679403577
     H    -2.2766996002   -1.5010509644   -2.0090403892
     H     4.7477631355   -2.0604403266    0.3781449581
     H     5.4849161455   -0.3652647892    2.8232298500
     H     6.9392350914   -2.3218081916    0.0125931747
     H     6.0574254222   -1.1447890541    4.6657421629
     H     6.1793485286   -0.9291245750    7.0087656779
     H     7.8415227588   -0.8154306004    7.6097653673
     H     6.9230796510   -2.3019218049    7.8468676946
     H     9.3181287933   -3.0236021299    6.7019093846
     H    10.1625600214   -3.9126849757    4.5395599448
