60
-1.3422291413788339e+03 frame 63   xyz file generated by TeraChem
     C     6.8521150933    0.0986560081   -0.9839795826
     N     5.7726282320   -0.8518077346   -1.1234749503
     C     5.9014834713   -2.0865094725   -1.7779299795
     C     6.9807897608   -2.5787145608   -2.5021042617
     C     6.8543095644   -3.8574267849   -3.0504331789
     C     5.6911887126   -4.6073950057   -2.8805264562
     C     4.6153775395   -4.0884567100   -2.1516266353
     C     4.7275188901   -2.8218450739   -1.6048915762
     C     3.7564537211   -2.0079515597   -0.7858321627
     C     4.5495644733   -0.7201903971   -0.5608494339
     C     4.0221898819    0.3491987455    0.1430201426
     C     4.3725344809    1.6927657772    0.3152809950
     C     3.6214636019    2.6379796091    1.1511471140
     O     2.6437069903    2.4838987923    1.8829125462
     C     4.4804704415    3.7434204013    0.6897714597
     C     4.6438593338    5.1322093804    0.6767889668
     C     4.0905470026    6.1780766266    1.3963730393
     N     3.4272586224    6.1421300816    2.5744035491
     C     3.2916810185    4.9738635325    3.4159583001
     C     2.9929118514    7.4219477421    2.9525534787
     C     3.4264010223    8.3522115163    2.0062937566
     C     4.1907260759    7.6290933710    0.9246293306
     C     5.6551362494    8.0922715258    0.8694443816
     C     3.5244474499    7.7977257346   -0.4485926232
     C     3.1338844170    9.6950726433    2.1690225002
     C     2.3937912297   10.0942344690    3.2874300431
     C     1.9609743496    9.1515323917    4.2193602225
     C     2.2517740693    7.7934438953    4.0678209753
     C     5.2085570945    2.8057365423   -0.1737132410
     O     6.1202015150    2.9785843065   -0.9826089034
     C     2.4617163295   -1.7223428212   -1.5602459558
     C     3.4365188130   -2.6988034341    0.5495327370
     H     7.7981481219   -0.4005162650   -1.1958192791
     H     6.8666278884    0.4658582620    0.0462931776
     H     6.7173827513    0.9621180921   -1.6385741247
     H     7.8874671384   -2.0015639589   -2.6529213290
     H     7.6808388658   -4.2684852871   -3.6236044559
     H     5.6183527358   -5.5981685881   -3.3198053674
     H     3.7064968001   -4.6703517254   -2.0190427709
     H     3.0815636641    0.1137061802    0.6429927777
     H     5.3103034049    5.4590248006   -0.1221571846
     H     4.2160238763    4.3924927928    3.3551694020
     H     2.4727256968    4.3313896222    3.0863879924
     H     3.1415282611    5.2942260065    4.4479147392
     H     6.1451569084    7.9702934917    1.8402881450
     H     5.6927958325    9.1509580618    0.5912185417
     H     6.2134884710    7.5218411491    0.1199921476
     H     2.4837408560    7.4596392944   -0.4255980860
     H     4.0608348819    7.2205333337   -1.2088963375
     H     3.5395810394    8.8532517203   -0.7410922256
     H     3.4706756660   10.4286603840    1.4403496513
     H     2.1517961450   11.1437414565    3.4284369659
     H     1.3815884710    9.4732353882    5.0804122357
     H     1.8984118753    7.0684942253    4.7941567013
     H     2.6724936495   -1.2292592659   -2.5143439656
     H     1.7983840632   -1.0776107018   -0.9743503185
     H     1.9370321167   -2.6623215813   -1.7630268129
     H     4.3481823913   -2.8968214437    1.1217056832
     H     2.9334388676   -3.6523628759    0.3559094089
     H     2.7695640878   -2.0779220420    1.1566733017
