43
-1.9322149780544007e+03 frame 89   xyz file generated by TeraChem
     C    -0.4362826128    0.5983491504   -0.9031015879
     O     0.6096230332    1.2173592990   -0.1722923976
    Si     1.1895054639    2.7467163736   -0.4144943234
     C     2.6099095153    2.7437164615   -1.6286734893
     C     2.3536668371    2.1877419747   -3.0367414580
     C     1.4733631207    3.1089777196   -3.8737052801
     S     1.2511108363    2.5282922976   -5.5827323389
     C    -0.2127833483    1.5390399875   -5.3959955454
     O    -0.7840330888    1.3801547789   -4.3388584913
     C    -0.7664022224    0.9518174746   -6.6801744696
     S     0.5223645357    0.3392529914   -7.8219826372
     C    -0.4724834097    0.1118852256   -9.2865276822
     C    -0.3864128962    1.0345848982  -10.3323735786
     C    -1.1415797936    0.8457752959  -11.4879590451
     C    -1.9865089558   -0.2565140110  -11.5995612514
     C    -2.0712833317   -1.1779604253  -10.5566514329
     C    -1.3104407482   -1.0012694014   -9.4040078846
     O     0.0573892862    3.8101648049   -0.9712396801
     C    -1.0989460036    4.1539050427   -0.2212043380
     O     1.6988446341    3.2939457128    1.0626364007
     C     2.4892702977    2.5090126516    1.9376493599
     H    -0.2450763598   -0.4788576402   -0.9312964834
     H    -0.5047231252    0.9666967530   -1.9321907726
     H    -1.3979079220    0.7678356179   -0.4040500155
     H     3.4040991172    2.1473874723   -1.1567780949
     H     3.0085844076    3.7657568870   -1.6964646547
     H     1.8917335438    1.1947370809   -2.9792719852
     H     3.3113297087    2.0528134897   -3.5551044624
     H     1.9296527204    4.1001350207   -3.9668365561
     H     0.4798160193    3.2348310718   -3.4351043828
     H    -1.3288855283    1.7442876792   -7.1882898009
     H    -1.4562154061    0.1516074651   -6.4018311199
     H     0.2696335886    1.8950801058  -10.2369971298
     H    -1.0710566084    1.5642141667  -12.3002179183
     H    -2.5767962043   -0.3999958126  -12.5005831707
     H    -2.7250779307   -2.0416759925  -10.6431288331
     H    -1.3618688950   -1.7249828278   -8.5951519288
     H    -1.6005766010    4.9798400717   -0.7330228857
     H    -0.8344391560    4.4758190994    0.7922674471
     H    -1.7959388371    3.3096852072   -0.1547895079
     H     2.6571830767    3.0839343462    2.8529070570
     H     3.4652134172    2.2735646515    1.4934950604
     H     1.9855318977    1.5711287520    2.1982458065
