65
-2.7739026416614720e+03 frame 92   xyz file generated by TeraChem
     C     4.8731748137   -0.4995758834    0.1351480910
     O     3.7445753645   -1.3528636221    0.1956233201
    Si     2.2481514754   -0.8316573626    0.6901667862
     C     2.2553367289    0.0345001642    2.3465917163
     C     2.5649625642    1.5349804206    2.2883343618
     C     2.5098884798    2.1575408341    3.6779847462
     S     2.8608652205    3.9402770521    3.5682475553
     C     2.4544411783    4.4131603440    5.2357103089
     O     2.1177739437    3.6062965874    6.0735132887
     C     2.5576063751    5.8851223269    5.5386492676
     C     2.6685774697    6.8586690959    4.5416710086
     C     2.7321392998    8.1960213386    4.9188715184
     C     2.6812015143    8.5163985113    6.2689854287
     C     2.5705022997    7.4682360695    7.1848591400
     N     2.5094318265    6.1876165621    6.8359220297
     C     2.5094026383    7.7763171082    8.6492398475
     O     2.5007196812    8.9163811560    9.0680623983
     S     2.4652325645    6.3374488107    9.6900249328
     C     2.3707362796    7.1587421659   11.3093544122
     C     0.9453089272    7.4859005359   11.7357198656
     C     0.9017153383    8.0920137496   13.1425260205
    Si    -0.8314109921    8.3101309712   13.7948181643
     O    -0.6582270218    8.8739347958   15.3427032581
     C    -1.7890478818    9.1400808978   16.1603056882
     O    -1.7838141419    9.2828508155   12.8570351444
     C    -1.3749669688   10.5920611376   12.4975831098
     O    -1.7028402435    6.9022462048   13.7794264171
     C    -1.2557371317    5.7639555549   14.4951654406
     O     1.6169952055    0.2382759951   -0.3940130377
     C     1.4229091249   -0.0948746707   -1.7604047859
     O     1.3278640171   -2.2024663968    0.6795652276
     C     1.6529314478   -3.3526112386    1.4402786134
     H     5.7054906917   -1.0652911410   -0.2936457909
     H     5.1689271815   -0.1542132564    1.1342295792
     H     4.6848109850    0.3763234343   -0.4983739904
     H     2.9721291454   -0.4739206183    3.0065791790
     H     1.2654205238   -0.1165332531    2.7996891771
     H     1.8434516561    2.0347597920    1.6323055996
     H     3.5565817258    1.7042546191    1.8500311532
     H     3.2444478769    1.7035242860    4.3500458404
     H     1.5199576250    2.0423236310    4.1291337935
     H     2.6902858508    6.5845039668    3.4917246482
     H     2.8149077473    8.9749718112    4.1670312674
     H     2.7232550103    9.5410296195    6.6220101299
     H     2.9867786051    8.0620248130   11.2604501179
     H     2.8378986730    6.4601305235   12.0114654152
     H     0.3406471566    6.5712716843   11.7041150430
     H     0.5034626376    8.1798580298   11.0108873931
     H     1.4288282187    9.0554423729   13.1646289076
     H     1.4380073006    7.4406835673   13.8478623274
     H    -1.4313586674    9.5235067460   17.1198298722
     H    -2.3725172898    8.2290511421   16.3396547548
     H    -2.4443623180    9.8913276057   15.7034992939
     H    -2.1419917412   11.0175328826   11.8446601625
     H    -0.4225065506   10.5822061652   11.9523689525
     H    -1.2703448068   11.2376251781   13.3784968280
     H    -2.0363665716    4.9999080407   14.4401121410
     H    -1.0695402422    5.9956181854   15.5514571690
     H    -0.3363155988    5.3518244842   14.0592671707
     H     1.0635999758    0.7983025309   -2.2788881660
     H     0.6778516571   -0.8910465004   -1.8691664424
     H     2.3596352799   -0.4210121836   -2.2279519709
     H     0.9006068164   -4.1191277964    1.2345698479
     H     1.6425487407   -3.1358866018    2.5162584710
     H     2.6395054568   -3.7450231714    1.1679409891
