39
-1.4949247494085082e+03 frame 59   xyz file generated by TeraChem
     C     1.9609823159   -1.3758704397   -3.7356042652
     O     1.7838163227   -0.6566211758   -2.5269871315
    Si     2.6181971172   -1.0343222257   -1.1441348291
     C     2.3274868475   -2.8050815342   -0.6385037537
     C     2.9980685712   -3.2104272371    0.6782652643
     C     2.6504647241   -4.6509877271    1.0311536950
     S     3.4604763292   -5.1433311880    2.5848262887
     C     2.7301312381   -6.7644743451    2.7711735248
     O     1.9272582798   -7.1838405698    1.9590838744
     C     3.1488745155   -7.5482398348    3.9640108614
     C     4.1253496113   -7.1116691665    4.8660280806
     C     4.4630269056   -7.9002338373    5.9608272718
     C     3.8295560156   -9.1259263984    6.1621921189
     C     2.8566213318   -9.5659864783    5.2649570131
     C     2.5186136078   -8.7815809396    4.1695909681
     O     4.2469079910   -0.8411709925   -1.3053696274
     C     4.8451608914    0.4183005239   -1.5740955534
     O     2.0797102172    0.0605736651   -0.0297357400
     C     0.7014961492    0.2725688708    0.2221880036
     H     1.3484310146   -0.9009363991   -4.5072574705
     H     1.6397329448   -2.4201399550   -3.6325327545
     H     3.0075650940   -1.3605746451   -4.0643458832
     H     2.6681398024   -3.4654516747   -1.4481711419
     H     1.2405440698   -2.9545936493   -0.5649510417
     H     2.6721251117   -2.5428250515    1.4856656855
     H     4.0852495664   -3.0952734170    0.5923858690
     H     2.9751044506   -5.3384908967    0.2440509548
     H     1.5714341138   -4.7750453347    1.1614516559
     H     4.6297433957   -6.1603149355    4.7188126148
     H     5.2229995295   -7.5579978288    6.6574474500
     H     4.0952077896   -9.7391129372    7.0191675391
     H     2.3624861687  -10.5210364750    5.4200587991
     H     1.7646824658   -9.1068606831    3.4595958359
     H     5.9222719959    0.2642928289   -1.6816089133
     H     4.6672670084    1.1211157797   -0.7525797733
     H     4.4576518485    0.8536361085   -2.5028689858
     H     0.6127292244    1.0390251583    0.9973272637
     H     0.2140156388   -0.6425941243    0.5826368877
     H     0.1810356741    0.6184538900   -0.6780278123
