40
-1.5700690145595481e+03 frame 51   xyz file generated by TeraChem
     C     6.0662264544    0.5523599872   -1.7812871656
     O     5.1800617095    1.6298162950   -1.5334499745
    Si     3.5364761900    1.5124962779   -1.7171757597
     C     3.0234218409    0.6770856664   -3.3056865105
     C     3.0093679755   -0.8565428426   -3.2694327586
     C     2.5207865853   -1.4260757997   -4.5963062950
     S     2.5302097987   -3.2441231412   -4.5216370492
     C     1.8603772099   -3.5806296782   -6.1425863927
     O     1.5654551045   -2.6533852335   -6.8782126629
     C     1.6757860910   -4.9933704044   -6.5714115003
     C     1.1506054886   -5.1741575691   -7.8618583912
     C     0.9290545083   -6.4333056718   -8.3929881768
     C     1.2360083256   -7.5586992417   -7.6249208960
     C     1.7554367810   -7.4134132162   -6.3474215312
     C     1.9785298552   -6.1405568676   -5.8116671196
     O     2.4851446207   -5.9902467186   -4.5710958195
     O     2.8033338875    0.6988146249   -0.4828288201
     C     2.9027978901    1.1208824101    0.8681672789
     O     3.0029687676    3.0731658841   -1.5810755093
     C     3.4331438920    4.0962496304   -2.4614470806
     H     7.0779725467    0.8785080295   -1.5235114204
     H     6.0557019996    0.2614577063   -2.8393938462
     H     5.8191784493   -0.3257315330   -1.1716058913
     H     3.6803276939    1.0271853532   -4.1144690574
     H     2.0170626992    1.0445317125   -3.5521763806
     H     2.3599363003   -1.2002202677   -2.4560543490
     H     4.0131905840   -1.2434877156   -3.0527949684
     H     3.1633265818   -1.1070849969   -5.4228242422
     H     1.5027486885   -1.0908685068   -4.8161150684
     H     0.9236274636   -4.2811155359   -8.4351484454
     H     0.5224135269   -6.5422961409   -9.3936639376
     H     1.0707475863   -8.5565310318   -8.0223082055
     H     1.9964326721   -8.2871947980   -5.7454410873
     H     2.6383425448   -6.8617954134   -4.1734164978
     H     2.3947545585    0.3805444234    1.4925074959
     H     2.4227315787    2.0952746945    1.0121468654
     H     3.9490978352    1.1919317561    1.1892896807
     H     2.9745670402    5.0363052005   -2.1414244052
     H     3.1201400840    3.8924388250   -3.4937652812
     H     4.5232415140    4.2127745904   -2.4401136038
