40
-1.8929590224172046e+03 frame 41   xyz file generated by TeraChem
     C     5.5723636914    0.5301675403    1.5690775023
     O     4.6606940367   -0.5078333565    1.8827495159
    Si     3.0154486033   -0.3559262116    1.7489641128
     C     2.3111490452    1.0845934290    2.7062660286
     C     2.4532055421    2.4573650526    2.0390627353
     C     1.8524973646    3.5506895984    2.9154755864
     S     1.9596699455    5.1619910700    2.0773016980
     C     2.0277503487    6.2516634858    3.4976696856
     O     2.0379027481    5.8080799922    4.6325208130
     C     2.0970104159    7.7016904023    3.2157112764
     C     1.9049945391    8.1938890865    1.9155757559
     C     1.9749968481    9.5475854266    1.6360728037
     C     2.2431860635   10.4401756893    2.6743172521
     C     2.4298191328    9.9779577488    3.9686556818
     C     2.3572068711    8.6098549687    4.2676222558
     S     2.5976821268    8.0654853898    5.9352027836
     O     2.5146552689   -0.1688045059    0.1890136043
     C     2.8643020364   -1.0979331132   -0.8268406925
     O     2.4421170584   -1.8129766989    2.2824980043
     C     2.8214482827   -2.3647061090    3.5312187736
     H     6.5812659592    0.1074517136    1.5638537728
     H     5.5356339161    1.3303603046    2.3187488416
     H     5.3723739696    0.9629146957    0.5809869796
     H     2.7789390056    1.0997074237    3.7010017485
     H     1.2467705743    0.8679484503    2.8752573981
     H     1.9581851046    2.4427412908    1.0610335460
     H     3.5080754564    2.6921143521    1.8530290557
     H     2.3891471444    3.6445608845    3.8639059331
     H     0.8012007899    3.3415381309    3.1376568466
     H     1.6846060751    7.4987789887    1.1104842431
     H     1.8188179510    9.9056236816    0.6233108775
     H     2.3035353048   11.5071020463    2.4774763544
     H     2.6313802713   10.6892279426    4.7648927643
     H     2.8913863710    9.2982914376    6.3954263008
     H     2.4714125720   -0.7248179700   -1.7765598494
     H     2.4277208939   -2.0825927390   -0.6253567398
     H     3.9523134829   -1.2041704581   -0.9125887104
     H     2.3250856023   -3.3333357797    3.6398651180
     H     2.5106004757   -1.7214904443    4.3646548126
     H     3.9054042459   -2.5161634523    3.5879960681
