41
-1.6992150837440668e+03 frame 59   xyz file generated by TeraChem
     C     2.2592036930   -4.3556605056   -1.3505464065
     O     2.1204238236   -2.9603880871   -1.1424565010
    Si     2.8998629410   -2.1641162116    0.0859659600
     C     2.4794422770   -2.8449472102    1.7702265484
     C     3.2398400820   -2.1536021065    2.9072391464
     C     2.8014698261   -2.6885061281    4.2648230305
     S     3.7479175634   -1.8855887851    5.5979304460
     C     2.6770355961   -2.1994219202    6.9713034504
     O     1.6285685010   -2.8004427876    6.8949597624
     C     3.1638204289   -1.5787322678    8.2509452612
     C     3.2788507836   -0.1907908949    8.3262000979
     C     3.6088616681    0.4340899206    9.5279103084
     C     3.8247924446   -0.3210433964   10.6762817783
     C     3.7170924732   -1.7067900778   10.6236717410
     C     3.3950049157   -2.3155582520    9.4182893121
     N     3.3782067868   -3.7748096299    9.3883549692
     O     3.6130185935   -4.3246669036    8.3235605106
     O     3.1567885396   -4.3614845634   10.4359743839
     O     4.5371941380   -2.2645424690   -0.0745130224
     C     5.2209882796   -1.7480705538   -1.2068035555
     O     2.4453220665   -0.5868426155   -0.0909425993
     C     1.0877046477   -0.1825309426   -0.1190853633
     H     1.6972968834   -4.6227615068   -2.2500269346
     H     1.8561527913   -4.9301651356   -0.5069275234
     H     3.3088258449   -4.6378480399   -1.4988521876
     H     2.6775512764   -3.9253437177    1.7870138948
     H     1.3960860807   -2.7319651513    1.9205886952
     H     3.0668964763   -1.0706958482    2.8717650720
     H     4.3176793834   -2.3044102904    2.7735811854
     H     2.9593168611   -3.7693133941    4.3355620416
     H     1.7430439742   -2.4857630922    4.4533359573
     H     3.0876122254    0.4048378757    7.4384518334
     H     3.6922220181    1.5162445107    9.5623683762
     H     4.0858865012    0.1620540924   11.6126232982
     H     3.8979766416   -2.3228710545   11.4972966960
     H     6.2799387928   -2.0011829520   -1.1066349637
     H     5.1210508030   -0.6583544032   -1.2626067084
     H     4.8406478917   -2.1867066363   -2.1370625703
     H     1.0599739610    0.9059356773   -0.2214544958
     H     0.5680624045   -0.4567474705    0.8081483855
     H     0.5569700270   -0.6305367490   -0.9669414911
