38
-1.5109537003371811e+03 frame 47   xyz file generated by TeraChem
     C     1.8662024906   -4.2765190433    0.5244278904
     O     1.7999484776   -2.9406298464    0.0551238842
    Si     2.5966141251   -1.6977749742    0.8109914522
     C     2.2160811839   -1.6082008946    2.6323256882
     C     2.8756424627   -0.4220545635    3.3443825942
     C     2.5647570597   -0.4421415015    4.8357761291
     S     3.3665932991    0.9680857966    5.6633916498
     C     2.9230891568    0.5644967119    7.3367224880
     O     2.2574735816   -0.4086638627    7.6296455891
     C     3.4409722833    1.5252555251    8.3578236091
     C     3.1544427570    1.3108465208    9.7045471027
     C     3.6523777488    2.2214519338   10.6308628033
     C     4.4072049662    3.2959196005   10.1728569709
     C     4.6347959569    3.4174764266    8.8011471416
     N     4.1642273874    2.5528598273    7.9061867450
     O     4.2326305337   -1.8665080056    0.6633799100
     C     4.8663440949   -1.9164316295   -0.6056144847
     O     2.1889000690   -0.3362676760   -0.0323458524
     C     0.8548783613    0.1357999923   -0.1123334821
     H     1.3154273089   -4.9105167215   -0.1761943406
     H     1.4082206940   -4.3771667485    1.5165319294
     H     2.9019476077   -4.6350003789    0.5769699268
     H     2.5443300876   -2.5490677000    3.0963703437
     H     1.1257237348   -1.5702642088    2.7657036110
     H     2.5247017763    0.5192442380    2.9028796090
     H     3.9615155274   -0.4542221407    3.1935129666
     H     2.9321963785   -1.3627704031    5.2997722201
     H     1.4864288324   -0.3841521526    5.0147203352
     H     2.5592890510    0.4531288783    9.9992135768
     H     3.4543939127    2.0939525217   11.6912846039
     H     4.8155777741    4.0310333743   10.8594077690
     H     5.2208564328    4.2467741714    8.4102730997
     H     5.9328861482   -2.0965063164   -0.4448534261
     H     4.7438891607   -0.9697937139   -1.1440129129
     H     4.4613979668   -2.7278815246   -1.2223496388
     H     0.8552210863    1.0537019544   -0.7067485893
     H     0.4515766198    0.3665964234    0.8821768350
     H     0.1998190813   -0.5968538871   -0.5984411327
