36
-1.4927213514216560e+03 frame 30   xyz file generated by TeraChem
     C     2.1689273454    1.3819320952    3.6558823302
     O     2.0012461554    0.6496059046    2.4536408543
    Si     2.8346103972    1.0259610779    1.0697784045
     C     2.5484491753    2.7974167877    0.5626170937
     C     3.1184652352    3.1583219760   -0.8132987620
     C     2.8222582796    4.6134935342   -1.1526804462
     S     3.4420578840    5.0135315991   -2.8172840364
     C     2.9166995150    6.7169712728   -2.8899178865
     O     2.3456605785    7.2721585798   -1.9672800728
     C     3.2169399291    7.4051831047   -4.1374797581
     C     2.9603726032    8.6914508755   -4.5302531925
     C     3.4673944293    8.8105239309   -5.8510387407
     C     3.9935395240    7.5905868560   -6.1628301982
     O     3.8503420749    6.7298543924   -5.1356474731
     O     4.4633755008    0.8311651802    1.2292349011
     C     5.0614501126   -0.4297366010    1.4914130571
     O     2.2941807173   -0.0686967708   -0.0438987736
     C     0.9152247879   -0.2750342408   -0.2966276113
     H     1.5512490535    0.9146222051    4.4280953612
     H     1.8473383612    2.4247320716    3.5393368032
     H     3.2131151180    1.3712425444    3.9923112765
     H     2.9747592053    3.4579056156    1.3305524635
     H     1.4642700927    2.9793657925    0.5746687807
     H     2.6837778086    2.5024113456   -1.5779786301
     H     4.2011242237    2.9843446319   -0.8268533175
     H     3.2975897707    5.2914433349   -0.4375744663
     H     1.7457695920    4.8087466426   -1.1373359267
     H     2.4675116947    9.4470223935   -3.9343709118
     H     3.4463415751    9.6830631191   -6.4891533547
     H     4.4848405351    7.1972224675   -7.0410058121
     H     6.1386164984   -0.2764202656    1.5993947002
     H     4.8832353804   -1.1284294107    0.6664635768
     H     4.6742016592   -0.8696091566    2.4181517860
     H     0.8237669930   -1.0405866464   -1.0723434104
     H     0.4314380274    0.6423325787   -0.6566312044
     H     0.3929300298   -0.6194396742    0.6031043565
