52
-1.2966027557861034e+03 frame 52   xyz file generated by TeraChem
     C    -0.1420392728   -2.9959727143    0.3332225285
     N    -0.1677691877   -1.6021853996   -0.0420462830
     C    -1.2418108848   -0.7520360436    0.0910690521
     C    -2.5039616241   -0.9907842006    0.6408810040
     C    -3.4072824450    0.0605140939    0.6701080098
     C    -3.0937748079    1.3391634380    0.1573850340
     C    -1.8302415025    1.5576334061   -0.4002626362
     C    -0.9024119484    0.5196096154   -0.4380324614
     C     0.4516025386    0.4095563874   -0.9267806053
     C     0.8603159531   -0.9226635197   -0.6698195263
     C     2.1279651796   -1.3815508613   -1.0334841903
     C     2.9856596744   -0.4790572542   -1.6525908013
     C     2.5976462818    0.8457815991   -1.9104025905
     C     1.3331730133    1.2962233086   -1.5509698154
     C    -4.0898697813    2.4285512957    0.2079856121
     C    -5.0369707317    2.5074645416    1.2342768906
     C    -5.9603094141    3.5540836753    1.2422833965
     N    -5.9796607222    4.5083305173    0.3052877183
     C    -5.0765873277    4.4468350765   -0.6796037283
     C    -4.1256771813    3.4294663589   -0.7685270562
     C    -5.1272599254    5.5212589819   -1.7071299615
     C    -6.0732441774    6.5479270789   -1.6229609083
     C    -6.0830224116    7.5324563025   -2.6031395094
     C    -5.1533417878    7.4645073617   -3.6363397106
     C    -4.2509891983    6.4033936306   -3.6349921580
     N    -4.2290075326    5.4531394941   -2.7010852099
     C    -6.9764357607    3.6529257286    2.3245820749
     C    -7.9006425957    4.7024261390    2.3448986038
     C    -8.8318985408    4.7560903507    3.3743768049
     C    -8.8153331411    3.7648070430    4.3508916844
     C    -7.8572459839    2.7592427702    4.2451275344
     N    -6.9581179795    2.6951876726    3.2636635725
     H    -0.7987207687   -3.1562538039    1.1910846847
     H     0.8726549135   -3.2753552688    0.6257691201
     H    -0.4658548196   -3.6422611965   -0.4909352628
     H    -2.7831509424   -1.9669696607    1.0255613182
     H    -4.3990005352   -0.1184563788    1.0758531931
     H    -1.5613442436    2.5384871024   -0.7839539983
     H     2.4364034955   -2.4059375000   -0.8471926615
     H     3.9782447818   -0.8106100443   -1.9461915432
     H     3.2939621048    1.5226258108   -2.3976952542
     H     1.0320748904    2.3211776462   -1.7535382119
     H    -5.0603600206    1.7834051514    2.0403591192
     H    -3.4405564016    3.4249103817   -1.6083460067
     H    -6.7788222847    6.5587529030   -0.7999831211
     H    -6.8073139713    8.3415018407   -2.5605158768
     H    -5.1236538185    8.2107504271   -4.4242399954
     H    -3.5081708755    6.3146508550   -4.4263509681
     H    -7.8755743613    5.4520831779    1.5623268712
     H    -9.5604591664    5.5614722185    3.4134882710
     H    -9.5232108811    3.7657608837    5.1739619327
     H    -7.8118376048    1.9651876040    4.9889841449
