46
-2.4300337598682236e+03 frame 66   xyz file generated by TeraChem
     C     3.4660198571    1.1292230576    0.3438949447
     N     2.2195214969    0.4174696061    0.5231032951
     C     2.0824488805   -0.9228004891    0.6434298688
     C     0.7396720859   -1.2646018775    0.7843030588
     C     0.0128376995   -0.0131188837    0.7426673849
     C     0.9713255339    1.0116535012    0.5830266364
     C     0.6285624446    2.3617856132    0.5063579712
     C    -0.7203443733    2.6770690357    0.5927552910
     C    -1.6929121657    1.6741404310    0.7533658764
     C    -1.3412094177    0.3340033454    0.8316726956
     C     0.1330831628   -2.5520344859    0.8992447518
     C     0.7106795144   -3.7772733489    1.0719589272
     C     2.1550444908   -4.0234244809    1.2499403143
     C     3.0595519395   -4.4995793573    0.3228030222
     C     4.3675726584   -4.6229743774    0.8261291334
     C     4.4764621564   -4.2483017926    2.1591742698
     S     2.9170629551   -3.7491301169    2.7703393986
     C     5.5656290735   -4.1992356091    3.0835110308
     C     6.8923113121   -4.4965130093    2.9656570454
     S     7.9759948250   -4.3161897413    4.3480912930
     C     9.3688664735   -4.8378419864    3.4431282416
     S    10.8780510086   -4.9431715596    4.0906200168
     N     8.9984970498   -5.1237867798    2.1492263018
     C     7.6508644857   -4.9888370804    1.8242676623
     O     7.2417213965   -5.2850246667    0.7024646370
     C     9.9582222550   -5.4938229495    1.1179033140
     C     9.9637288839   -6.9894720971    0.7952085243
     O    10.9448418890   -7.6772696506    0.9343117625
     O     8.8247739916   -7.4845645176    0.3127728925
     C    -0.1244691742   -4.9307624904    1.0933179610
     N    -0.7888416130   -5.8879278821    1.1117750590
     H     4.2853770629    0.4094873400    0.3273590928
     H     3.6225107063    1.8318038188    1.1680966276
     H     3.4539923356    1.6822568389   -0.6001861546
     H     2.9568409864   -1.5565476131    0.5926922568
     H     1.3821451989    3.1342903559    0.3837108684
     H    -1.0291297980    3.7171031776    0.5363753585
     H    -2.7401677609    1.9560078342    0.8193131343
     H    -2.1062992657   -0.4272035166    0.9616620252
     H    -0.9533244870   -2.5518029377    0.8271802973
     H     2.7754954828   -4.7416240064   -0.6957778936
     H     5.2164394523   -4.9699962085    0.2530315480
     H     5.2765235458   -3.8519680641    4.0754813390
     H    10.9507512932   -5.2129826097    1.4671402971
     H     9.7093684351   -4.9283810011    0.2131574686
     H     8.1509632089   -6.7702061142    0.2340212044
