47
-1.6361139405313397e+03 frame 90   xyz file generated by TeraChem
     C     5.9613492741   -7.7282589723    3.5859710667
     N     4.8194679767   -7.6422578900    2.7017740053
     C     4.6194054001   -6.6941012963    1.7578109718
     C     3.4175176315   -6.9153269786    1.0894853706
     C     2.8528206263   -8.1045506300    1.6949523271
     C     3.7542053626   -8.5251883613    2.6965875897
     C     3.5283131797   -9.6476419586    3.4936151791
     C     2.3611866990  -10.3624924037    3.2622504237
     C     1.4499414257   -9.9650152811    2.2677080126
     C     1.6820644932   -8.8433156800    1.4841560894
     C     2.8296647767   -6.2458955161   -0.0264067270
     C     3.1648410058   -5.0999111556   -0.6992016280
     C     4.1908134122   -4.1174823528   -0.3420981624
     C     4.4729882116   -3.5794399747    0.8994482979
     C     5.4895098109   -2.6063990071    0.8679812399
     C     5.9864381963   -2.3848476825   -0.4010402043
     S     5.1922119010   -3.4005831637   -1.5597501802
     C     7.0091963575   -1.4574861829   -0.8244475934
     N     7.6574892690   -0.7412908718    0.0216476146
     C     8.5745384858    0.1981903631   -0.4497759194
     C     8.3421395977    0.9903714499   -1.5860468368
     C     9.2843545663    1.9230269393   -1.9957696742
     C    10.4764028679    2.0914881228   -1.2821650554
     C    10.6900168505    1.3284693372   -0.1265822646
     C     9.7520204317    0.3997290232    0.2886505103
     C    11.5204730391    3.0804328391   -1.6610737946
     O    12.3691131043    3.4776038666   -0.8921227650
     O    11.5116973341    3.5456770363   -2.9241587498
     C     2.4141406296   -4.8172392067   -1.8810266021
     N     1.8166524461   -4.5793841294   -2.8523069726
     H     6.6482083406   -6.9129614255    3.3555938745
     H     6.4765963102   -8.6832274356    3.4453984410
     H     5.6407644156   -7.6452276232    4.6289977456
     H     5.3623621338   -5.9237908012    1.6068991294
     H     4.2342551060   -9.9514757777    4.2610489715
     H     2.1483815494  -11.2439370416    3.8605764094
     H     0.5456786677  -10.5471569460    2.1128844441
     H     0.9634929584   -8.5469685420    0.7242528395
     H     1.9656691001   -6.7671610138   -0.4356012863
     H     3.9343949167   -3.8654594360    1.7964438209
     H     5.8451719794   -2.0583523233    1.7333734820
     H     7.2123955698   -1.4074512041   -1.9024147287
     H     7.4023261654    0.8987743462   -2.1229281049
     H     9.0512747579    2.5458055170   -2.8566813915
     H    11.6048522620    1.4806811990    0.4375339809
     H     9.9152704284   -0.1954677396    1.1822133982
     H    10.8746844975    3.0605598104   -3.4716910978
