72
-2.3021441296446474e+03 frame 91   xyz file generated by TeraChem
     F     0.1870149080    0.2368792431    1.7776670778
     C     1.3288962792   -0.0296982669    1.1395903786
     S     2.4276137514   -1.0918736554    2.1696873626
     O     1.6208046611   -2.3075713393    2.3983254180
     O     3.6021752878   -1.3030790560    1.2992872467
     O     2.6766011496   -0.2725527570    3.3639001311
     F     1.0276219072   -0.6362380687   -0.0157106287
     F     1.9300056974    1.1292774548    0.8527407090
     C     4.2044701138    0.0844916872   -4.3467059130
     C     3.9280110948    0.0953898146   -2.8486475150
     N     3.7305583985   -1.2337459333   -2.2638013843
     C     2.5832657288   -1.8808474103   -2.4021419173
     C     1.3873017602   -1.6538576545   -3.1722896883
     C     0.8486771347   -0.5530814355   -3.8500441117
     C    -0.3515908753   -0.4778879627   -4.5439767344
    Se    -1.2116950775    1.2439091642   -4.7239720184
     C    -2.6370997743    0.2844957043   -5.5714477093
     C    -2.3259914075   -1.0781171940   -5.6628725902
     N    -1.0699104013   -1.4479092488   -5.1634400889
     C    -0.4421478946   -2.6874933503   -5.6552253040
     C    -0.1188518573   -2.6009791540   -7.1389023960
     C    -3.2503733341   -1.9565940446   -6.2340376466
     C    -4.4581296473   -1.4512419021   -6.7028690039
     C    -4.7540138679   -0.0897539297   -6.6140790654
     C    -3.8389480443    0.7916304340   -6.0443394366
     C     0.8274429495   -2.9125771770   -2.6422051046
     O    -0.2415082202   -3.4913387561   -2.7482563158
     C     2.0450739298   -3.0924416597   -1.8133691921
     C     2.3412351029   -3.7965165138   -0.6570290742
     C     1.8190421088   -5.0180290110   -0.2001831132
    Se     1.5636523764   -5.2632039602    1.6857171386
     C     1.1801471816   -7.0813791708    1.2484464791
     C     1.2231110256   -7.2838681364   -0.1360320401
     N     1.5533102896   -6.1495660785   -0.8920990391
     C     1.8619464190   -6.3048859538   -2.3221793882
     C     0.6377437243   -6.4799251082   -3.2072352209
     C     1.0012332904   -8.5651050477   -0.6527147798
     C     0.7158648777   -9.6025148325    0.2265338853
     C     0.6511878929   -9.3857004940    1.6051565432
     C     0.8890237818   -8.1186273912    2.1256355500
     C     4.8589437314   -1.8005109680   -1.5183085194
     C     6.1106424136   -1.9609692821   -2.3678723363
     H     4.3559134397    1.1110718113   -4.6970159176
     H     3.3669244173   -0.3442274196   -4.9053551181
     H     5.1030429686   -0.4942737045   -4.5779090666
     H     3.0558341309    0.7108471808   -2.6099354557
     H     4.7683752946    0.5454050808   -2.3124921644
     H     1.3394316608    0.4048701949   -3.7144893971
     H    -1.1062820161   -3.5212585629   -5.4192212350
     H     0.4676382279   -2.8440317274   -5.0838203963
     H    -1.0112517413   -2.4361576509   -7.7491599119
     H     0.3439778440   -3.5402546733   -7.4587699010
     H     0.5881618680   -1.7873893434   -7.3307504815
     H    -3.0392547753   -3.0183433264   -6.3050928445
     H    -5.1800859280   -2.1336753572   -7.1415101314
     H    -5.7021069108    0.2874380658   -6.9855208860
     H    -4.0607421662    1.8515497110   -5.9669569816
     H     2.9537563400   -3.2773401746    0.0782943301
     H     2.5326249432   -7.1680045856   -2.4000879230
     H     2.4298369116   -5.4219086856   -2.6193498788
     H     0.0625433769   -7.3720888177   -2.9467190393
     H     0.9736499859   -6.5877640495   -4.2441468900
     H    -0.0121740490   -5.6061660398   -3.1366152772
     H     1.0541506575   -8.7632553540   -1.7165705547
     H     0.5416123776  -10.5972293834   -0.1727477731
     H     0.4225178651  -10.2088568853    2.2755037947
     H     0.8573651292   -7.9400130672    3.1961259388
     H     4.5539166211   -2.7750790250   -1.1402096140
     H     5.0447520585   -1.1641141821   -0.6476028586
     H     5.9200066678   -2.6012780736   -3.2354008744
     H     6.8919010812   -2.4284869446   -1.7594464244
     H     6.5000887391   -1.0011350599   -2.7216899796
