41
-1.0817088452751714e+03 frame 40   xyz file generated by TeraChem
     C     1.0576361918   -0.0981285210   -0.5807714217
     N     2.5037232019   -0.0411313637   -0.3900814449
     C     3.2303029497   -1.1739744884   -0.4808386266
     C     4.5875174822   -1.2008472121   -0.3108065652
     C     5.3107539618   -0.0231610707   -0.0262359535
     C     6.7133679360   -0.0508642601    0.1544465123
     N     7.3701349915   -1.1981143915    0.0586969066
     N     8.6593082243   -1.1046139042    0.2462900420
     C     9.3225255265   -2.3034381237    0.1499802436
     C     8.7274309559   -3.5649191764   -0.1203165905
     C     9.4898031646   -4.7055153840   -0.1907369707
     C    10.8957352637   -4.6654355786    0.0035158715
     C    11.4831628926   -3.4030799961    0.2727800853
     C    10.7233201534   -2.2592403975    0.3432235261
     C    11.7707984130   -5.7877057015   -0.0489265918
     C    11.5351149125   -7.1267134615   -0.2882795124
     C    10.2698964361   -7.7175667446   -0.5558314648
     N     9.2508662377   -8.2351391407   -0.7787216117
     C    12.6317462619   -8.0353612569   -0.2772123327
     N    13.5253683432   -8.7816033756   -0.2689024811
     C     4.5398105257    1.1997380699    0.0691849922
     C     3.1286811094    1.1625949433   -0.1179500863
     C     2.3714397861    2.3461751500   -0.0269351871
     C     2.9932366257    3.5475707841    0.2426910373
     C     4.3821981830    3.6042329836    0.4299748327
     C     5.1326055346    2.4517168137    0.3444162664
     H     0.7764240753   -1.1291751745   -0.7907641448
     H     0.7628438334    0.5326761187   -1.4233053046
     H     0.5434947532    0.2362963296    0.3241929510
     H     2.6696420361   -2.0757070573   -0.6994419261
     H     5.1087348992   -2.1458880015   -0.3959463710
     H     7.2763537260    0.8549567231    0.3757946829
     H     7.6548553736   -3.6147571240   -0.2702185571
     H     8.9950233949   -5.6481089111   -0.3984377250
     H    12.5583969443   -3.3466461369    0.4260309491
     H    11.1816937887   -1.2964430664    0.5502029322
     H    12.8182172128   -5.5517333640    0.1314025548
     H     1.2976428839    2.3216515646   -0.1677436844
     H     2.3968151025    4.4528051269    0.3092237982
     H     4.8659046716    4.5527935277    0.6422755114
     H     6.2043772301    2.5128764384    0.4930812152
