47
-1.1680126197644227e+03 frame 61   xyz file generated by TeraChem
     C     0.0172292995   -2.9115801701    0.4545593906
     N    -0.0940117669   -1.5621925085   -0.0441846320
     C    -1.1196559301   -0.6898534604    0.2314107605
     C    -2.2767674908   -0.8895894884    0.9935816610
     C    -3.1674611955    0.1618813172    1.1090577001
     C    -2.9400744968    1.4153487285    0.4893546838
     C    -1.7776263042    1.5929225372   -0.2729150492
     C    -0.8621430877    0.5529157785   -0.4011236787
     C     0.4042249282    0.4102034490   -1.0796182203
     C     0.8473377603   -0.9104351845   -0.8224214838
     C     2.0613112763   -1.3851881293   -1.3214804225
     C     2.8226979831   -0.5160513976   -2.0945434132
     C     2.3948413710    0.7933533871   -2.3646436009
     C     1.1882420739    1.2629124739   -1.8604845134
     C    -3.8669950585    2.5314059268    0.6091913041
     C    -4.9398432338    2.6173986461    1.4240003351
     C    -5.8418691960    3.7618611406    1.4610732315
     C    -6.0670496966    4.5425480656    0.3625001685
     C    -6.9569628627    5.6745482733    0.3690436646
     O    -7.1892253168    6.4089155161   -0.5698964230
     O    -7.6276993781    5.9312158378    1.5464738411
     C    -7.4349253234    5.1836869181    2.6665876397
     C    -6.5532974926    4.0925389571    2.6868083266
     C    -6.4062687908    3.4100034665    3.9077636733
     C    -7.1183586815    3.7892294525    5.0303557879
     C    -8.0108238514    4.8748922373    4.9902072770
     C    -8.1552409722    5.5699238358    3.7947296942
     C    -8.7947369283    5.2657207893    6.2096135577
     H    -0.9798620965   -3.3462595325    0.5551965962
     H     0.5212333331   -2.9446615360    1.4276305505
     H     0.5802198493   -3.5180158149   -0.2582955455
     H    -2.4787320853   -1.8377883949    1.4826406968
     H    -4.0731390352    0.0094024763    1.6887742557
     H    -1.5929084212    2.5502921657   -0.7555614980
     H     2.4074896515   -2.3931374124   -1.1134498444
     H     3.7724601961   -0.8603537341   -2.4951978885
     H     3.0165885449    1.4451828332   -2.9718435203
     H     0.8594609243    2.2783284184   -2.0669782594
     H    -3.6285541974    3.3910103047   -0.0176657274
     H    -5.1549668773    1.8070728436    2.1155895340
     H    -5.6071862102    4.3221894919   -0.5942108257
     H    -5.7124619014    2.5782255958    3.9763929025
     H    -6.9829438514    3.2441815140    5.9611431501
     H    -8.8224566459    6.4238652856    3.7181060571
     H    -8.1571049497    5.2829732900    7.0999903050
     H    -9.5981922749    4.5437623060    6.4022852229
     H    -9.2527599632    6.2517015630    6.0917453002
