52
-1.1883254817773245e+03 frame 65   xyz file generated by TeraChem
     N     1.8189686724   -0.9540351272   -0.1059095084
     C     2.8325129899   -0.3815724778   -0.0856425516
     C     4.0894815562    0.2955790412   -0.1188457292
     C     4.3941543216    1.2960380378    0.7551723125
     C     3.6748369853    1.8549421244    1.8809984369
     C     2.4948394500    1.3312109949    2.4461693861
     C     1.8836917484    1.9401670069    3.5257066074
     C     2.4151676652    3.1121728816    4.0956676187
     C     3.5963551656    3.6402383985    3.5469889926
     C     4.2059658231    3.0171021657    2.4740807048
     N     1.7835802515    3.7289831849    5.1787363816
     C     2.5279257007    4.4652877600    6.1341766818
     C     2.0618232658    5.7064801931    6.5811454891
     C     2.7776905960    6.4168692594    7.5387442625
     C     3.9711818794    5.9102274193    8.0496317560
     C     4.4393990634    4.6770359627    7.5992938244
     C     3.7210266429    3.9513184175    6.6554000379
     C     0.3761015363    3.6424228992    5.3368889596
     C    -0.1715338463    3.3467198551    6.5897094549
     C    -1.5514248125    3.2787607581    6.7487621408
     C    -2.3993446069    3.4885600953    5.6628952739
     C    -1.8536036578    3.7777523508    4.4135615583
     C    -0.4753786120    3.8646573374    4.2490255137
     C     5.0184686982   -0.1403767599   -1.1869056229
     C     6.4057938568   -0.0150652668   -1.0419363543
     C     7.2662412174   -0.4024536133   -2.0627686580
     C     6.7820977439   -0.9422478783   -3.2569787803
     C     5.3968749766   -1.0872356409   -3.3899061766
     C     4.5305012556   -0.6981120909   -2.3778117369
     C     7.7112425394   -1.3604583691   -4.3614526064
     H     5.3472827972    1.7865359241    0.5642275559
     H     2.0562297638    0.4211565462    2.0539306600
     H     0.9852317104    1.5014799782    3.9474761902
     H     4.0260312935    4.5456955155    3.9627221711
     H     5.1153017390    3.4497680423    2.0630687930
     H     1.1370572011    6.1052835769    6.1747469669
     H     2.4041607025    7.3792636627    7.8783097272
     H     4.5305214959    6.4702711694    8.7936124435
     H     5.3637202389    4.2662910600    7.9968108697
     H     4.0764116947    2.9823035978    6.3172791154
     H     0.4897214686    3.1703483383    7.4331221464
     H    -1.9645182129    3.0472173995    7.7269000928
     H    -3.4765554019    3.4278556877    5.7890882804
     H    -2.5043310125    3.9513777744    3.5606865577
     H    -0.0512746247    4.1039396523    3.2781539794
     H     6.8230231938    0.3611030352   -0.1118622277
     H     8.3397074160   -0.2989997818   -1.9205532695
     H     4.9881050601   -1.5119525615   -4.3043266315
     H     3.4592503984   -0.8227358833   -2.5138469508
     H     8.7584774861   -1.2698033706   -4.0580473185
     H     7.5665195085   -0.7413174796   -5.2553152978
     H     7.5336973051   -2.4001957684   -4.6597696666
