49
-1.6084936458958223e+03 frame 70   xyz file generated by TeraChem
     N     1.2189003318   -0.8233608857    0.2760676771
     C     2.2365620911   -0.3289254752    0.0018086388
     C     3.4884401253    0.2363608196   -0.3866353202
     C     3.9561988707    1.3992214790    0.1511874171
     C     3.4423371944    2.2640078517    1.1903021007
     C     2.3287134308    1.9949297412    2.0118373872
     C     1.9215950533    2.8873061017    2.9841812151
     C     2.6023213247    4.1031554453    3.1872138766
     C     3.7183648926    4.3814814080    2.3785047882
     C     4.1221180500    3.4782115874    1.4139437963
     N     2.1779230680    5.0018098981    4.1667677731
     C     3.0952508534    5.8686830597    4.8124846097
     C     2.7601422830    7.2106756841    5.0230692379
     C     3.6470584848    8.0563608231    5.6806546061
     C     4.8812209339    7.5823452081    6.1210529844
     C     5.2177082864    6.2470673774    5.9061015594
     C     4.3297830841    5.3895303190    5.2656053488
     C     0.8100873044    5.0619128714    4.5438511112
     C     0.4554450799    5.0741215032    5.8966313426
     C    -0.8838600281    5.1493129626    6.2641663717
     C    -1.8813603570    5.1989342390    5.2923464895
     C    -1.5276955743    5.1827092074    3.9443714085
     C    -0.1900400390    5.1243737563    3.5679059393
     C     4.2220453542   -0.5090132096   -1.4349377928
     C     5.6161008515   -0.4161193737   -1.5550640220
     C     6.2992291125   -1.0964758250   -2.5542973076
     C     5.5877406756   -1.8978373082   -3.4422542304
     C     4.2073469184   -2.0281730492   -3.3347243462
     C     3.5357474768   -1.3372135933   -2.3341257835
    Cl     6.4393249322   -2.7597886702   -4.6921773747
     H     4.8821781698    1.7614888751   -0.2919783353
     H     1.7818876849    1.0651668953    1.9085494582
     H     1.0714936613    2.6405836700    3.6115875266
     H     4.2589148814    5.3134462494    2.5071485726
     H     4.9831338738    3.7214837599    0.7954185420
     H     1.8030051976    7.5832402801    4.6700922893
     H     3.3742447202    9.0963956821    5.8383704623
     H     5.5740069933    8.2471001516    6.6291059957
     H     6.1725706214    5.8621208081    6.2541127676
     H     4.5853710426    4.3446537374    5.1152383370
     H     1.2335220161    5.0245338304    6.6528670792
     H    -1.1478449853    5.1568104848    7.3182705743
     H    -2.9267744525    5.2511863985    5.5827800282
     H    -2.2962657206    5.2298373615    3.1775971769
     H     0.0870876138    5.1255130151    2.5176372216
     H     6.1871811618    0.1724803397   -0.8432799324
     H     7.3789258195   -1.0204250940   -2.6327907128
     H     3.6620783015   -2.6606492128   -4.0276634522
     H     2.4569212567   -1.4410558917   -2.2573046214
