12
-3.3111570289402954e+02 frame 6   xyz file generated by TeraChem
     F     2.1559786504   -0.0132393314   -0.0020564802
     C     0.8092103941   -0.0053007894   -0.0014245107
     C     0.1483221269    1.2145146432   -0.0011717026
     C    -1.2453176358    1.2122226017   -0.0006768201
     C    -1.9506980363    0.0092908661   -0.0004114817
     C    -1.2586082735   -1.2013069908   -0.0006273413
     C     0.1349148145   -1.2177281946   -0.0011539785
     H     0.7190266007    2.1380514477   -0.0013937133
     H    -1.7793300551    2.1585580333   -0.0005137266
     H    -3.0369074782    0.0152621888   -0.0000442548
     H    -1.8025997993   -2.1419443882   -0.0004216704
     H     0.6958287044   -2.1472400907   -0.0013643199
