59
-1.3798435499865932e+03 frame 84   xyz file generated by TeraChem
     N     6.7601202971   -2.2594019968    2.2482660990
     C     5.9719980086   -1.5740406436    1.7340391906
     C     5.0477618993   -0.6851857449    1.1055090312
     C     3.9219795542   -1.1364128223    0.4826688450
     C     3.3536900265   -2.4604664157    0.3481074076
     C     2.2698968130   -2.6108718697   -0.5394030472
     C     1.6598522439   -3.8316241035   -0.7584561688
     C     2.1013820396   -4.9778337109   -0.0750541551
     C     3.1698982563   -4.8382519104    0.8309364158
     C     3.7808460462   -3.6155941739    1.0333879472
     N     1.4972907871   -6.2192750096   -0.2808698077
     C     2.2347976162   -7.4203129830   -0.1137319395
     C     1.6802223458   -8.4895520128    0.5972370871
     C     2.3937674033   -9.6746350687    0.7423965791
     C     3.6693146110   -9.8025926942    0.1959980023
     C     4.2238440395   -8.7353015661   -0.5079884042
     C     3.5105542644   -7.5529207216   -0.6728786396
     C     0.1381626315   -6.3130373530   -0.6764796568
     C    -0.2319877019   -7.1819786595   -1.7084775794
     C    -1.5671156381   -7.2918304117   -2.0821177809
     C    -2.5442160375   -6.5292072490   -1.4454096568
     C    -2.1746166366   -5.6589214562   -0.4212415098
     C    -0.8441911755   -5.5551767486   -0.0295860521
     C     5.4199861268    0.7471147695    1.1366613733
     C     4.4472339234    1.7547486347    1.0706538123
     C     4.8071451879    3.0943525917    1.0629829000
     C     6.1509901188    3.4868637076    1.1349653407
     C     7.1194556342    2.4783361440    1.2242707984
     C     6.7633170680    1.1371446472    1.2296580438
     C     6.5314331491    4.9154188381    1.1276505847
     C     5.7421240272    5.8743357918    1.7779217198
     C     6.0999891172    7.2185011105    1.7677793033
     C     7.2545967850    7.6324934159    1.1069892982
     C     8.0487231775    6.6898990181    0.4570726703
     C     7.6909204339    5.3457355399    0.4676344982
     H     3.3518698999   -0.3665137426   -0.0345535834
     H     1.9128202357   -1.7416970465   -1.0875458218
     H     0.8417804957   -3.9055118681   -1.4673982796
     H     3.5131969112   -5.7028088249    1.3897106875
     H     4.5877443683   -3.5608310795    1.7551051634
     H     0.6907696156   -8.3848510694    1.0328402733
     H     1.9530555015  -10.4981792252    1.2978582658
     H     4.2265441263  -10.7271566945    0.3171644485
     H     5.2141608113   -8.8256619679   -0.9461421082
     H     3.9368336348   -6.7267231633   -1.2345909158
     H     0.5319517788   -7.7678378890   -2.2112312998
     H    -1.8420152931   -7.9704762840   -2.8851874252
     H    -3.5854434234   -6.6133411673   -1.7434062811
     H    -2.9287195119   -5.0660180705    0.0894706160
     H    -0.5574347669   -4.8887546302    0.7787627389
     H     3.3936759839    1.4911918118    1.0423931304
     H     4.0307163503    3.8513158341    0.9906370832
     H     8.1682636036    2.7482703883    1.3133513314
     H     7.5392652363    0.3800157705    1.3064138236
     H     4.8539533557    5.5586944645    2.3191731792
     H     5.4783966577    7.9442772463    2.2856817992
     H     7.5340037232    8.6825901322    1.0989447375
     H     8.9472251784    7.0031263713   -0.0681303755
     H     8.3035320564    4.6214183095   -0.0630045587
