35
-9.7311958795883584e+02 frame 27   xyz file generated by TeraChem
     O     6.4662279713   -3.1331589898   -1.6129010539
     C     5.5728108568   -2.7512487402   -2.5106451234
     O     5.4446284190   -3.3573506767   -3.5537997886
     C     4.7418020765   -1.5101107584   -2.2531967703
     C     4.3088939251   -0.8770280645   -3.4224216492
     C     3.5313813916    0.2732491900   -3.3905484832
     C     3.1457428168    0.8077659740   -2.1665146654
     C     3.5345428926    0.1754173806   -0.9917654946
     C     4.3292305519   -0.9790233867   -1.0104103034
     C     4.7151946605   -1.5566263005    0.3179844053
     O     5.8653311386   -1.9258979668    0.5769455693
     N     3.7088669166   -1.6051980638    1.2248796890
     C     3.7792675049   -2.0500353642    2.5612650585
     C     4.9249312314   -1.8941817441    3.3124587212
     C     4.9524436366   -2.3063690246    4.6596572695
     C     3.8394272187   -2.8470247170    5.2516888134
     C     2.6470494252   -3.0231869535    4.5074721860
     C     2.6076169745   -2.6420798220    3.1305686231
     C     1.4151782085   -2.8788747216    2.3994323814
     C     0.3107718104   -3.4305520394    3.0046947710
     C     0.3415722502   -3.7799702675    4.3713410510
     C     1.4886892965   -3.5856967215    5.1000006174
     H     6.4326155137   -2.5687362093   -0.7942906445
     H     4.6002364717   -1.3212839364   -4.3681766516
     H     3.2294122396    0.7482703304   -4.3194461611
     H     2.5461016547    1.7121700479   -2.1202040231
     H     3.2446675196    0.6061753479   -0.0369484772
     H     2.7928211956   -1.3529990535    0.8828826848
     H     5.8050050480   -1.4520927496    2.8636274695
     H     5.8680776087   -2.1749713363    5.2289667996
     H     3.8553730582   -3.1519657828    6.2948829697
     H     1.3675863423   -2.6607997442    1.3362372114
     H    -0.5890393950   -3.6088662642    2.4225500221
     H    -0.5384535505   -4.2127368327    4.8387482030
     H     1.5302258257   -3.8659018448    6.1498640641
