34
-8.7316393668179580e+02 frame 55   xyz file generated by TeraChem
     O     1.5523839955    2.2492062189   -0.9354500914
     C     2.2743743933    1.2342858488   -0.2760076554
     C     3.6376588197    1.8282797165    0.0573717205
     N     4.4946068342    0.9030622186    0.7776562185
     C     5.3059019602    0.0256854154    0.1342268649
     C     5.2711416384   -0.1189569055   -1.2803508126
     C     6.0862155914   -1.0095419740   -1.9343410611
     C     7.0037842811   -1.8300173800   -1.2362101443
     C     7.0405332337   -1.6798544101    0.1710010141
     C     6.2296848353   -0.7931327076    0.8365213076
     C     7.8800133724   -2.7794293111   -1.8723596983
     C     7.9866966574   -3.1414053892   -3.2090800374
     C     8.9457802694   -4.1078629737   -3.6291483648
     N     9.7183125413   -4.8932896939   -4.0017500342
     C     7.1851249214   -2.6241704370   -4.2620873267
     N     6.5524652961   -2.2336264396   -5.1573912028
     C     8.7949949351   -3.4714465749   -1.0042672263
     N     9.5291292520   -4.0212557148   -0.2925510934
     C     4.4784153288    1.0180703854    2.2319076308
     C     5.5366505366    1.9737124903    2.7693050881
     H     0.6881914495    1.8926549360   -1.1796684912
     H     2.4013867318    0.3411919985   -0.9066296910
     H     1.7795550323    0.9136552125    0.6544372670
     H     3.4911138187    2.7151461089    0.6820663691
     H     4.1238541843    2.1746406886   -0.8593422412
     H     4.5824745208    0.4698769789   -1.8743853002
     H     6.0033030002   -1.0637547245   -3.0123086972
     H     7.7330647835   -2.2775242458    0.7563413180
     H     6.3249841301   -0.7194288401    1.9129559272
     H     4.5848286987    0.0232438361    2.6745482501
     H     3.4797527932    1.3679182397    2.5127126010
     H     6.5455108146    1.6364646456    2.5112555496
     H     5.4651826174    2.0407885480    3.8599504456
     H     5.3990651969    2.9790400366    2.3570726878
