26
-6.8535731615473367e+02 frame 14   xyz file generated by TeraChem
     O     1.8592897426    0.1444236515   -1.5232849773
     C     0.7332073687    0.0567172247   -0.7646964400
     C    -0.0226963828   -1.1154252614   -0.7292607371
     C    -1.1724192898   -1.1902314588    0.0483660921
     C    -1.5736599180   -0.0871747420    0.7987470326
     C    -0.8175290537    1.0768950181    0.7618484754
     C     0.3457804369    1.1816536466   -0.0124425846
     C     1.0986534604    2.4389006782   -0.0031583860
     N     0.6752485495    3.4855729722    0.7714005789
     C     1.5478797287    4.4592925378    0.5686759451
     N     2.5410170628    4.0618442592   -0.3328487035
     C     2.2519318890    2.7728663267   -0.6954276326
     C     3.5633337444    4.8893646330   -0.7092007966
     C     3.6257079914    6.1491759230   -0.1916256487
     C     2.6385759708    6.5954215382    0.7280166465
     C     1.6146468061    5.7649257910    1.1033722748
     H     1.9952083433   -0.7007969917   -1.9752302670
     H     0.2990295310   -1.9717510130   -1.3200681319
     H    -1.7502464748   -2.1103679831    0.0644272015
     H    -2.4706780458   -0.1335782913    1.4093040356
     H    -1.1118040644    1.9470319945    1.3400732099
     H     2.8640410474    2.2222143006   -1.3890568412
     H     4.2794252834    4.4808970651   -1.4129272345
     H     4.4380091784    6.8018829600   -0.4917488437
     H     2.7008158308    7.6009956582    1.1324026695
     H     0.8443412577    6.0717695891    1.8025630308
