10
-1.1769049694265345e+03 frame 30   xyz file generated by TeraChem
     P     1.7949167123    0.2277763033   -0.9995018628
     O     2.2993529335    0.8007645924    0.5075326074
     P     2.4955758591    2.4446998320    0.6845946178
     O     4.1452868684    2.6088856962    0.8394926520
     P     5.0257281188    3.0133711471   -0.5432092128
     H     0.8398611285   -0.7105477597   -0.5197836943
     H     2.7923807909   -0.7734923791   -1.1666690510
     H     2.2941135189    2.4212224017    2.0897325694
     H     6.0332378218    2.0168034139   -0.4225066511
     H     5.8452257633    4.0134565552    0.0488080904
