81
-1.7468176929506390e+03 frame 84   xyz file generated by TeraChem
     N    -1.0991265147    3.0412305397   -2.7674807241
     C    -1.2195855434    1.9881348427   -2.2840077075
     C    -1.3812109083    0.7090031689   -1.6881352527
     C    -0.4077805154   -0.2782002168   -1.7832323299
     C    -0.5921119633   -1.5522128155   -1.1837310915
     C     0.3660200843   -2.5331782131   -1.2467677554
     C     0.1751126260   -3.8559670938   -0.6989418813
     C    -1.0314000279   -4.4129730540   -0.4206650434
     C    -1.3108214343   -5.7528424341    0.0688031183
     C    -2.5830851132   -6.2662609970   -0.2327509584
     C    -2.9703211629   -7.5772369859    0.0352466126
     C    -4.3237774974   -8.0122328570   -0.3916044339
     C    -4.5111565921   -9.1686019003   -1.1626718566
     C    -5.7820954423   -9.5376315324   -1.5943998591
     C    -6.8895812649   -8.7576171701   -1.2651742715
     C    -6.7162405753   -7.6032530264   -0.5034813198
     C    -5.4448407097   -7.2334571648   -0.0728917095
     C    -2.0469878088   -8.4415306255    0.6769898330
     C    -0.7940437169   -7.9067475093    1.0325627293
     C    -0.4034636779   -6.6023196395    0.7570279862
     C     0.9133217667   -6.1556015585    1.2809514237
     C     2.0821942680   -6.8460713466    0.9392888979
     C     3.3138023659   -6.4633103155    1.4679643007
     C     3.3916939296   -5.3916112606    2.3542265584
     C     2.2303707419   -4.7058109824    2.7119444093
     C     1.0021615583   -5.0832817117    2.1796806901
     C    -2.4031122823   -9.8085761771    1.0339404225
     C    -1.5164675558  -10.7964189052    1.2976959187
     C    -1.8108067438  -12.1648202619    1.6820836303
     C    -3.1094928765  -12.6625836845    1.9025838709
     C    -3.3373633124  -13.9760419735    2.2662181665
     C    -2.2652424897  -14.8894375287    2.4297898209
     C    -0.9575581086  -14.3920367824    2.2207409443
     C    -0.7514288182  -13.0727499786    1.8572431321
     N    -2.4874067938  -16.1943542641    2.7730544426
     C    -3.8280709240  -16.6468404246    3.0765682092
     C    -1.3668070824  -17.0763533673    3.0168872637
     C     1.6881028412   -2.2657383475   -1.9103745309
     C     2.0615974762   -0.7812902619   -2.0054233453
     C     0.8485580756   -0.0225534859   -2.5618661091
     C     3.2399412420   -0.6103259011   -2.9629991218
     C     2.4469876485   -0.2338229709   -0.6276873718
     C    -2.6076004381    0.4958148794   -1.0013423016
     N    -3.6122696814    0.3224008044   -0.4384378329
     H    -1.5180726536   -1.7384842876   -0.6462393279
     H     1.0774879877   -4.4463557721   -0.5649252029
     H    -1.9244609223   -3.8406796968   -0.6711889822
     H    -3.2843277507   -5.6196445635   -0.7556634418
     H    -3.6506333383   -9.7719416393   -1.4393017006
     H    -5.9056981616  -10.4338961735   -2.1968920983
     H    -7.8816547756   -9.0469379780   -1.6017319193
     H    -7.5737874712   -6.9897545403   -0.2394425951
     H    -5.3155168276   -6.3376267486    0.5296786240
     H    -0.1109910138   -8.5246392629    1.6084750844
     H     2.0244141359   -7.6796303609    0.2435526782
     H     4.2128485981   -7.0046769467    1.1850005284
     H     4.3512087422   -5.0936601321    2.7686349492
     H     2.2814669846   -3.8761379924    3.4123834843
     H     0.0997093477   -4.5485889729    2.4644713793
     H    -3.4676691575  -10.0270604822    1.0683804771
     H    -0.4528608056  -10.5775020046    1.1979081675
     H    -3.9680661657  -12.0047932534    1.7920038455
     H    -4.3587054083  -14.3016249518    2.4299532585
     H    -0.0984091575  -15.0416496683    2.3454355539
     H     0.2690785679  -12.7261480283    1.7039983535
     H    -4.2553118476  -16.1259787476    3.9455894687
     H    -3.8017447585  -17.7145985619    3.2972436378
     H    -4.5026896159  -16.4957851147    2.2246698175
     H    -0.7428541357  -16.7333475240    3.8547971732
     H    -0.7257431655  -17.1612789442    2.1302407883
     H    -1.7423912683  -18.0719235423    3.2557575060
     H     1.6439880958   -2.6951263069   -2.9243751292
     H     2.4759830700   -2.8222847246   -1.3864405004
     H     0.6632183761   -0.3534084570   -3.5959090402
     H     1.0629993964    1.0509334322   -2.6118124407
     H     2.9945497202   -0.9843165948   -3.9639364774
     H     4.1154227657   -1.1599398663   -2.5976974438
     H     3.5170110412    0.4468198271   -3.0505120510
     H     1.6352639311   -0.3427893710    0.0998623421
     H     2.6985759057    0.8311025209   -0.6957878591
     H     3.3237766637   -0.7648593862   -0.2395231799
