49
-1.1616194206528398e+03 frame 75   xyz file generated by TeraChem
     N     1.5148672475   -0.7427419283    0.6637856426
     C     2.6017776665   -0.3623792373    0.4926193731
     C     3.9529172815    0.0425752798    0.2754274402
     C     4.2924078868    1.3394754738    0.0265122229
     C     3.5132431896    2.5572894215   -0.0077307334
     C     2.1676444697    2.6874180168    0.3912331111
     C     1.5127075689    3.9023216772    0.3250569872
     C     2.1686514929    5.0569813303   -0.1431279499
     C     3.5131047975    4.9417421702   -0.5383428098
     C     4.1590977414    3.7227351455   -0.4665562871
     N     1.5052831881    6.2819435856   -0.2128534790
     C     0.4517666601    6.5949898294    0.6845911828
     C     0.5851782817    6.3386521168    2.0536088390
     C    -0.4503868722    6.6563115586    2.9260383674
     C    -1.6186194943    7.2487993141    2.4504932041
     C    -1.7462490385    7.5151177511    1.0886223854
     C    -0.7229101031    7.1850530153    0.2064727797
     C     1.8791239999    7.2519377174   -1.1798189791
     C     2.0516271886    6.8857452848   -2.5191014683
     C     2.4088315193    7.8436263256   -3.4618681756
     C     2.5795400100    9.1751022047   -3.0864391781
     C     2.3970897735    9.5409338830   -1.7541064410
     C     2.0562762862    8.5865400397   -0.8015218334
     C     4.9563149927   -1.0462138659    0.2994178226
     C     6.2845446584   -0.7966800156    0.6718402796
     C     7.2352955918   -1.8100604047    0.6665844846
     C     6.8481455160   -3.0919685348    0.2989268802
     C     5.5372524980   -3.3822029226   -0.0527362065
     C     4.5986316277   -2.3565862065   -0.0466699876
    Br     8.1784656886   -4.5185878628    0.2962028282
     H     5.3436436790    1.4921239607   -0.2130978339
     H     1.6160540379    1.8276070532    0.7537377060
     H     0.4730696973    3.9635231098    0.6297795078
     H     4.0489501578    5.8178895224   -0.8883124019
     H     5.2035896524    3.6650871164   -0.7649046060
     H     1.5023007732    5.8932501661    2.4281858979
     H    -0.3348481758    6.4519019710    3.9870697378
     H    -2.4224215440    7.5022018148    3.1358391208
     H    -2.6540885691    7.9727351070    0.7047568218
     H    -0.8266249430    7.3834942324   -0.8563051357
     H     1.9003712350    5.8509008660   -2.8122257338
     H     2.5388348858    7.5486906895   -4.4996839754
     H     2.8503396523    9.9221514403   -3.8271172901
     H     2.5317168675   10.5752981693   -1.4493434934
     H     1.9226848844    8.8664148420    0.2393395228
     H     6.5813250691    0.1953760455    0.9994268270
     H     8.2582215273   -1.6056444472    0.9635338308
     H     5.2485979879   -4.3904656234   -0.3292735386
     H     3.5723162632   -2.5812416545   -0.3242383123
