46
-1.2550987039685597e+03 frame 41   xyz file generated by TeraChem
     C    -1.2860320190    0.5061407711   -4.8118507516
     C    -0.7900327185    1.2849214441   -3.7661141177
     C    -1.5443351885    1.4728266428   -2.6160524699
     C    -2.8080482609    0.8773625634   -2.5071035305
     C    -3.3054369503    0.0960769489   -3.5564884312
     C    -2.5426135593   -0.0863231843   -4.7041558660
     C    -3.5835527382    1.0838691237   -1.2963589839
     N    -3.2707440394    1.7727176044   -0.2392111484
     N    -4.3262934055    1.6632298667    0.6323434775
     C    -5.2150534100    0.9146113387    0.0504520350
     O    -4.8080843549    0.5120236049   -1.1780661019
     C    -6.5080662678    0.5013825549    0.5569974479
     C    -6.9046594353    0.9514198563    1.8529319767
     C    -8.1117357494    0.5841869704    2.3585202966
     N    -8.9332161350   -0.2142127170    1.6182527109
     C    -8.5940711873   -0.6794735134    0.3518553964
     C    -7.3453034812   -0.3050881148   -0.1828646677
     C    -9.6808049888   -1.4470036314   -0.0580208380
     C   -10.5971931057   -1.3826779112    1.0037062979
     N   -10.1334270893   -0.6296387344    2.0199270983
     C   -11.9185951843   -2.0112845350    1.1077195920
     C   -12.4297186377   -2.7990597081    0.0414480340
     C   -13.6647224016   -3.3877671422    0.1307825416
     C   -14.4682164607   -3.2290342608    1.2881049367
     C   -13.9621509226   -2.4402340583    2.3651212145
     C   -12.6857901973   -1.8455856134    2.2445516916
     C   -14.7580285175   -2.2754911947    3.5279713411
     C   -15.9959826081   -2.8637102697    3.6193233176
     C   -16.4960867591   -3.6447693388    2.5516482435
     C   -15.7482820937   -3.8229283841    1.4122591647
     H    -0.6926141833    0.3611590696   -5.7103486144
     H     0.1892911957    1.7477472370   -3.8479090677
     H    -1.1693653751    2.0763807263   -1.7952425062
     H    -4.2844599609   -0.3653247798   -3.4716547336
     H    -2.9312128807   -0.6932869451   -5.5169214400
     H    -6.2433932925    1.5849631243    2.4313807074
     H    -8.4951148643    0.8767521756    3.3279467410
     H    -7.0639627382   -0.6582645610   -1.1687753111
     H    -9.7740203968   -1.9705799356   -0.9977415585
     H   -11.8348724657   -2.9372549991   -0.8566913772
     H   -14.0449651284   -3.9879515034   -0.6925509912
     H   -12.3015160911   -1.2456566654    3.0647655190
     H   -14.3684591929   -1.6739384626    4.3458903191
     H   -16.5972610785   -2.7305028153    4.5146282753
     H   -17.4768944361   -4.1048882616    2.6366075505
     H   -16.1294920254   -4.4231606750    0.5891515674
