40
-1.1016300578651537e+03 frame 42   xyz file generated by TeraChem
     C     0.8323449454    2.3839432023    1.3736766904
     C     0.8023601255    1.5772915615    0.2359942181
     C    -0.3917710999    1.0097676873   -0.1866803192
     C    -1.5701282391    1.2486886849    0.5329103692
     C    -1.5397362265    2.0575111727    1.6746831967
     C    -0.3389472380    2.6217215356    2.0900444145
     C    -2.8092891037    0.6453592929    0.0741322000
     N    -3.0055820976   -0.1157966771   -0.9614025701
     N    -4.3405013709   -0.4349376917   -0.9732266913
     C    -4.8740483383    0.1520815337    0.0559097418
     O    -3.9581546208    0.8560981333    0.7648218610
     C    -6.2563562438    0.1325030476    0.4958298412
     C    -6.6556260075    0.8529282959    1.6609788768
     C    -7.9550191785    0.8264996163    2.0652824458
     N    -8.8642146798    0.1083401505    1.3487484908
     C    -8.5259151638   -0.6104670041    0.2052005130
     C    -7.1853430040   -0.5905161567   -0.2219630345
     C    -9.7138741818   -1.1948886128   -0.2233713302
     C   -10.6828839477   -0.7799368574    0.7032373855
     N   -10.1573335231    0.0134879725    1.6572991125
     C   -12.1138375554   -1.1060627337    0.7337822180
     C   -12.6954618047   -1.8833897741   -0.2752223619
     C   -14.0512419543   -2.1906061465   -0.2393868682
     C   -14.8481480201   -1.7260209735    0.8046704097
     C   -14.2779781567   -0.9503553704    1.8130484289
     C   -12.9232285547   -0.6422841673    1.7793048661
     H     1.7689349217    2.8264065707    1.7015641224
     H     1.7142631179    1.3900637115   -0.3238558263
     H    -0.4284545829    0.3795438126   -1.0698337618
     H    -2.4528828095    2.2412995557    2.2324830384
     H    -0.3182719641    3.2493858720    2.9763929302
     H    -5.9335290594    1.4231423846    2.2324455256
     H    -8.3462926523    1.3399129237    2.9345782294
     H    -6.8933820470   -1.1429241671   -1.1084041470
     H    -9.8348491323   -1.8327000756   -1.0861765427
     H   -12.0866166430   -2.2498532356   -1.0969220047
     H   -14.4863826597   -2.7948124389   -1.0309743684
     H   -15.9075427921   -1.9664694524    0.8322771394
     H   -14.8923474859   -0.5837701741    2.6311704887
     H   -12.4758174822   -0.0391469442    2.5631957067
