54
-2.8209969013520958e+03 frame 26   xyz file generated by TeraChem
     C     0.9894214811    0.7034042118    0.0111303138
     C     0.6685383689    0.7850864778    1.3370050031
     S     0.0510027884   -0.7058915229    1.9286850482
     C     0.2210286047   -1.4743245977    0.3771606726
     C     0.7348080565   -0.5831337076   -0.5357186709
     C    -0.1180584979   -2.8935678038    0.2124923543
     C     0.3567262984   -3.8081943055    1.1530179888
     C     0.1309245416   -5.1805654584    1.0546624161
     C     0.7213761670   -6.0634812185    2.0701407859
     C     1.4914467331   -7.1914645404    1.9128267244
     C     1.9349059770   -7.7496837320    3.1422859225
     C     1.4998075959   -7.0439292166    4.2286391703
     S     0.5441606407   -5.6937481290    3.7605168726
     C    -0.6351998297   -5.6777908641   -0.0286879861
     C    -1.1345326666   -4.7658685920   -1.0074046561
     C    -0.8854909347   -3.3657353151   -0.8805779149
     C    -1.4669535289   -2.4826985934   -1.8408425309
     C    -2.1622056270   -2.9512029171   -2.9095538680
     C    -2.3647438054   -4.3500309672   -3.1156380488
     C    -1.8983834057   -5.2573324136   -2.1168121648
     C    -2.1955837690   -6.6497464732   -2.2161964809
     C    -1.6831886528   -7.5274345300   -1.2134256423
     C    -0.9447233533   -7.0646585489   -0.1711600118
     C    -2.9750583893   -7.1165723365   -3.3037807774
     C    -3.3617873055   -6.2162211984   -4.2957413015
     C    -3.0600258505   -4.8553965127   -4.2417850504
     C    -3.4820583614   -3.9902654083   -5.3495788026
     C    -2.7590167017   -3.0469131977   -6.0419801480
     C    -3.4853309131   -2.4451975373   -7.1044620684
     C    -4.7576910998   -2.9316370662   -7.2143770215
     S    -5.0813239338   -4.1258589777   -6.0209655392
     C    -3.3774866997   -8.5236272765   -3.4336513262
     C    -3.9809891136   -9.3494713017   -2.5147852860
     C    -4.2752940038  -10.6431778074   -3.0242899243
     C    -3.8946456396  -10.7952456945   -4.3278376639
     S    -3.1715646072   -9.3622275293   -4.9437844231
     H     1.4018852519    1.5308915715   -0.5562301012
     H     0.7544876490    1.6375097713    1.9985356572
     H     0.9548148073   -0.8571144250   -1.5621714242
     H     0.9795982770   -3.4417939253    1.9645689264
     H     1.7580829227   -7.5874634528    0.9385277592
     H     2.5584766439   -8.6343925485    3.2147115253
     H     1.6817620536   -7.2427309752    5.2769806683
     H    -1.3644812876   -1.4134346405   -1.6929423324
     H    -2.6063907673   -2.2527896823   -3.6104227046
     H    -1.8887710655   -8.5887145164   -1.2958667061
     H    -0.5874393465   -7.7585652332    0.5812730525
     H    -3.9254059818   -6.5913312822   -5.1461308425
     H    -1.7232659540   -2.8199830928   -5.8124863541
     H    -3.0758574352   -1.6883572116   -7.7650051058
     H    -5.5257701587   -2.6524025377   -7.9241185389
     H    -4.2360852075   -9.0229190120   -1.5120391370
     H    -4.7579195044  -11.4247598519   -2.4472529131
     H    -3.9930027959  -11.6683552210   -4.9600109194
