40
-1.2007775169247402e+03 frame 14   xyz file generated by TeraChem
     F     1.8211811723    0.2831549956   -0.1252788903
     C     0.4866311545    0.1833419702   -0.0170885362
     C    -0.3110340642    0.7504234896   -1.0009530895
     C    -1.6902691148    0.6499921287   -0.8818277002
     C    -2.2743316324   -0.0101171916    0.2082629568
     C    -1.4373854148   -0.5721578214    1.1798992108
     C    -0.0545523482   -0.4796138980    1.0743806705
     C    -3.7344965235   -0.0997035126    0.3188250969
     N    -4.5083006763    0.4455392426   -0.6390386720
     N    -5.7592861785    0.2022529805   -0.2484392412
     C    -5.8251485596   -0.4951724758    0.9530405330
     C    -4.5012072228   -0.6976617204    1.3314082706
     C    -7.0971634332   -0.8096734537    1.4718875747
     C    -8.2235843257   -0.4217314996    0.7797582326
     C    -8.1000774402    0.2904273053   -0.4517416508
     C    -6.8679948062    0.5889141637   -0.9422802265
     C    -9.5533653988   -0.7183851437    1.2731909605
     N   -10.6956585024   -0.4152482201    0.7326709958
     N   -11.6695219904   -0.9035592477    1.5687014985
     C   -11.0587948531   -1.4725128542    2.5651631115
     O    -9.7103737802   -1.3909513211    2.4389608109
     C   -11.6332784610   -2.1394619907    3.7206874695
     C   -13.0272371042   -2.2107221118    3.8433179283
     C   -13.5915667458   -2.8436098413    4.9424910232
     C   -12.7759212881   -3.4076388571    5.9235973390
     C   -11.3896639800   -3.3373403174    5.8021558560
     C   -10.8152519538   -2.7056911883    4.7051374101
     H     0.1508809117    1.2607601077   -1.8401177044
     H    -2.3332582605    1.0875390780   -1.6385610262
     H    -1.8650881047   -1.0903045197    2.0332194814
     H     0.6021774361   -0.9107657489    1.8230535726
     H    -4.1618249610   -1.2079019160    2.2204774696
     H    -7.1681199277   -1.3519997462    2.4081867922
     H    -8.9883946666    0.5921375177   -0.9930611748
     H    -6.6785359280    1.1235522390   -1.8646342942
     H   -13.6514231797   -1.7677437035    3.0734122759
     H   -14.6725321108   -2.8972871567    5.0352450939
     H   -13.2215593302   -3.9019607749    6.7824153387
     H   -10.7519855858   -3.7756648229    6.5645279234
     H    -9.7352026676   -2.6504042670    4.6098973358
