89
-2.7712628810060405e+03 frame 66   xyz file generated by TeraChem
     N     1.8425942248    2.9996829392    0.1082066804
     C     1.5552372479    1.8762040454    0.2182247664
     C     1.2184436379    0.5035515740    0.3623536905
     C     0.1174323425   -0.0555200166   -0.2731653449
     C    -0.1992194999   -1.4322071728   -0.1151125514
     C    -1.2751288807   -2.0090812122   -0.7403597994
     C    -1.6412484073   -3.3975013553   -0.5716806809
     C    -1.1620510141   -4.2352820262    0.3818954391
     C    -1.4825924408   -5.6475627205    0.4988830105
     C    -1.8986890452   -6.3760411312   -0.6241842743
     C    -2.1404261790   -7.7480833003   -0.6023594998
     C    -2.6019935325   -8.4108859629   -1.8283140101
     C    -3.5836509055   -9.3611190792   -1.9891299184
     C    -3.7950852137   -9.7335702127   -3.3445241987
     C    -2.9718705005   -9.0680694707   -4.2091007288
     S    -1.9303167205   -7.9813149491   -3.3768550777
     C    -1.9347709541   -8.4593522772    0.6128281340
     C    -1.5364120329   -7.7272109451    1.7386937887
     C    -1.3213980593   -6.3489846115    1.7247921896
     C    -0.9437868730   -5.6686939531    2.9671566904
     C    -1.3909819594   -4.4684660665    3.4718303233
     C    -0.8331359920   -4.1444156030    4.7379654873
     C     0.0358685121   -5.0977278853    5.1900209366
     S     0.1823568046   -6.3997068092    4.0760082685
     C    -2.0776333124   -9.9089194859    0.6790682474
     C    -2.3428231245  -10.6187736522    1.7970585310
     C    -2.4436852202  -12.0679894702    1.8963730832
     C    -2.1026258371  -12.9468397488    0.8514207794
     C    -2.2218883555  -14.3177106324    0.9921199418
     C    -2.7001064909  -14.8814515439    2.1893974737
     C    -3.0383892719  -14.0159013750    3.2411476330
     C    -2.9021181889  -12.6442780974    3.0930427958
     N    -2.8295680170  -16.2710746342    2.3224009588
     C    -2.6583292379  -16.9013539084    3.5795990454
     C    -3.5492842436  -17.9008373016    3.9894186166
     C    -3.3696106183  -18.5400671894    5.2119844406
     C    -2.3134031376  -18.1823192862    6.0487689525
     C    -1.4312309127  -17.1803207349    5.6458059750
     C    -1.5933073686  -16.5476765760    4.4172953593
     C    -3.1440004521  -17.0742457548    1.1973545805
     C    -2.4433276141  -18.2643538508    0.9677011061
     C    -2.7622184333  -19.0636842827   -0.1254894047
     C    -3.7691982973  -18.6816390997   -1.0109391514
     C    -4.4624315501  -17.4926998953   -0.7872774435
     C    -4.1611942496  -16.6956875919    0.3128660665
     C    -2.1486343803   -1.1934071026   -1.6520170874
     C    -1.4561475248    0.0335673788   -2.2560050553
     C    -0.7792660236    0.8047378423   -1.1142729451
     C    -2.5002949198    0.9306713866   -2.9191227888
     C    -0.4209755615   -0.3955968858   -3.2999629579
     C     2.0697826535   -0.2565998939    1.2105241370
     N     2.7695288215   -0.8762735159    1.9050024868
     H     0.4515768906   -2.0371492134    0.5103867415
     H    -2.3993030231   -3.7631566098   -1.2621760367
     H    -0.4839674524   -3.8436403190    1.1371655402
     H    -2.0251573192   -5.8486949609   -1.5654862038
     H    -4.1566526264   -9.7596766048   -1.1586616645
     H    -4.5333870994  -10.4620194914   -3.6630436213
     H    -2.9107922230   -9.1567112046   -5.2865712518
     H    -1.3788205421   -8.2623239789    2.6710628657
     H    -2.1268306650   -3.8550398648    2.9624884988
     H    -1.0731635873   -3.2436311364    5.2928504686
     H     0.6044359465   -5.1087361310    6.1115559843
     H    -1.9694561877  -10.4320575312   -0.2681252869
     H    -2.5343424310  -10.0843254006    2.7277577224
     H    -1.7135485200  -12.5545108469   -0.0843543705
     H    -1.9340219824  -14.9683261892    0.1721151344
     H    -3.4145517035  -14.4222492322    4.1748135128
     H    -3.1768140856  -11.9945428186    3.9213535044
     H    -4.3801395258  -18.1720563913    3.3445451980
     H    -4.0688328555  -19.3147230114    5.5160235562
     H    -2.1788907072  -18.6794103269    7.0053954013
     H    -0.5988683676  -16.8970771958    6.2848541410
     H    -0.8956778837  -15.7778567831    4.0999946168
     H    -1.6497825031  -18.5570192580    1.6493269422
     H    -2.2095136401  -19.9847537849   -0.2914119920
     H    -4.0118370062  -19.3049545232   -1.8670602237
     H    -5.2556305717  -17.1877302993   -1.4649420245
     H    -4.7132703891  -15.7777202813    0.4932057673
     H    -3.0245162890   -0.8661179726   -1.0681880675
     H    -2.5445380231   -1.8353408636   -2.4493676644
     H    -1.5561931040    1.2124109710   -0.4483451529
     H    -0.2287996876    1.6645213001   -1.5128798797
     H    -3.2561545968    1.2581412969   -2.1958150478
     H    -3.0085641434    0.3909566307   -3.7265578955
     H    -2.0282517187    1.8210232591   -3.3507160996
     H     0.3435257307   -1.0533211233   -2.8724818465
     H     0.0829982204    0.4810672845   -3.7234861923
     H    -0.9107034992   -0.9341118981   -4.1194470248
