42
-1.2179203597169867e+03 frame 31   xyz file generated by TeraChem
     C     1.1874405514    0.1515935588   -0.0288510277
     O     2.6054398794    0.2443923562    0.1209982802
     C     3.1565513640    1.3409745784   -0.4037504429
     O     2.5407355191    2.2526622175   -0.9004324495
     C     4.6433048182    1.2978748621   -0.3019617343
     C     5.4361458379    0.3599385782   -0.9580783898
     C     4.9422443552   -0.7243901804   -1.8356735258
     O     3.9221145864   -0.5138177570   -2.4816488818
     C     5.6101695842   -2.0471191315   -1.8786578710
     C     5.4032748927   -2.8558327933   -2.9997122121
     C     5.9561842183   -4.1281473220   -3.0592330622
     C     6.7053233639   -4.6373111404   -1.9936046100
     C     6.8877390054   -3.8294860877   -0.8637360545
     C     6.3575228980   -2.5488624769   -0.8068476103
     C     7.3002596296   -6.0155317074   -2.0480334029
     N     6.7492991825    0.6980078637   -0.7053538902
     C     6.7998709702    1.8216331007    0.1108811507
     C     5.4779612740    2.2022630026    0.3837882490
     C     5.1359019768    3.3026028203    1.2845338098
     O     5.9412007191    4.1031067179    1.7250533725
     O     3.8341222978    3.3210310316    1.5906055781
     C     3.4235281521    4.3774802744    2.4570219079
     C     8.0685724073    2.3164148265    0.4651111729
     C     9.1697975487    1.6824163073   -0.0423140407
     C     8.9765545147    0.5738814612   -0.9049382123
     N     7.8112036530    0.0867161973   -1.2455265192
     H     0.9016790629   -0.7790021935    0.4607497096
     H     0.9233594611    0.1243362958   -1.0891339109
     H     0.6950221569    1.0036828999    0.4461856581
     H     4.8082103583   -2.4691848240   -3.8217261106
     H     5.8011824385   -4.7414078497   -3.9437988897
     H     7.4544396974   -4.2140393151   -0.0186906295
     H     6.5063925035   -1.9445644678    0.0836727867
     H     7.0725720044   -6.5137627993   -2.9947268653
     H     6.9176193937   -6.6428004778   -1.2341499868
     H     8.3905513731   -5.9785955468   -1.9382981494
     H     2.3509642511    4.2423242966    2.5937052860
     H     3.6307103349    5.3491276930    2.0013412131
     H     3.9447982468    4.3113864549    3.4154300030
     H     8.1222109030    3.1848745353    1.1110219223
     H    10.1752222333    2.0185381166    0.1852890837
     H     9.8226722597    0.0594060198   -1.3510099386
