29
-8.3584419678478253e+02 frame 28   xyz file generated by TeraChem
     C     1.6967669842   -2.1567370050   -0.9236522780
     O     3.1026193059   -1.9555062518   -0.8390513214
     C     3.5660692049   -0.8850108723   -1.5399538742
     O     2.8207038513   -0.1568100063   -2.1798347080
     C     4.9867401767   -0.7113435739   -1.4559749276
     C     5.9155427409   -1.4367401608   -0.7529304547
     C     5.8589156688   -2.5676361719    0.1266059085
     C     7.0156490507   -3.0039343389    0.6888394203
     C     8.2495040492   -2.3460429221    0.3859221462
     N     8.3236510746   -1.3312124852   -0.4305894139
     N     7.1840888562   -0.9113749123   -0.9499051616
     C     7.1756998255    0.1315504243   -1.9660101397
     C     5.6702720370    0.4535592253   -2.1335277550
     C     7.7841146460   -0.4026173482   -3.2577362250
     O     8.0628368425   -1.5551358793   -3.4786697531
     O     7.9333336278    0.6002354521   -4.1262865647
     C     8.4189878007    0.2225651552   -5.4180194045
     H     1.4885496951   -3.0483619725   -0.3304723737
     H     1.3859484199   -2.3113234559   -1.9607103386
     H     1.1535097750   -1.2980985929   -0.5187533955
     H     4.8995271496   -3.0322514047    0.3161782052
     H     7.0203973395   -3.8523858293    1.3660456823
     H     9.1893840034   -2.6722132067    0.8179926340
     H     7.7610380712    0.9901938431   -1.6283902044
     H     5.3957390353    0.5539564214   -3.1874501520
     H     5.4222334717    1.4064036369   -1.6489949360
     H     8.4670526939    1.1457682714   -5.9945173604
     H     7.7348899452   -0.4883128991   -5.8876635728
     H     9.4097355247   -0.2305034043   -5.3338002622
