39
-9.9628491062850662e+02 frame 50   xyz file generated by TeraChem
     C     0.9009310751    0.4256814221   -0.3975637203
     O     2.3216207338    0.5334657226   -0.2956103037
     C     2.9065371261    1.0673425561    0.7751632878
     C     2.4176313669    0.9740136757    2.0709224731
     C     1.4592720554   -0.0093317177    2.6117490221
     O     0.9322864789   -0.9666744524    2.0616721267
     C     1.3010223688    0.3059723463    4.0617971569
     C     2.1416592790    1.3615117468    4.4045349922
     C     2.9072699006    1.7951318029    3.2016662030
     O     3.7561204894    2.6762510895    3.2097797797
     C     2.2003815310    1.8471687797    5.7026122786
     C     1.3819960228    1.2427035424    6.6575976866
     C     0.5387065902    0.1794290302    6.3138400259
     C     0.4921366569   -0.3076449043    5.0067932871
     C     4.1420929942    1.7539850115    0.4724757489
     C     4.5782179172    1.9314281607   -0.7960052629
     C     5.8092245383    2.5822063856   -1.2096114313
     C     6.7516468188    3.1061278533   -0.3086258041
     C     7.9019818099    3.7279236928   -0.7702419164
     C     8.1644978852    3.8519270702   -2.1403833545
     C     7.2272777954    3.3298921092   -3.0392151662
     C     6.0751704344    2.7067559644   -2.5840831898
     C     9.4186824727    4.5120229210   -2.6366705768
     H     0.6770510511    0.5533785531   -1.4585531971
     H     0.4205230808    1.2175199177    0.1849636085
     H     0.5656236183   -0.5452388537   -0.0370159325
     H     2.8650516356    2.6676126207    5.9577702405
     H     1.3993469925    1.5973700588    7.6846031715
     H    -0.0866655343   -0.2719004674    7.0794044571
     H    -0.1546023479   -1.1352833457    4.7297579958
     H     4.6885827572    2.1303799117    1.3285987586
     H     3.9536468524    1.5545460859   -1.6039157982
     H     6.5832188609    3.0291555383    0.7617020823
     H     8.6162388191    4.1282381762   -0.0543788136
     H     7.4060867151    3.4147018512   -4.1088249019
     H     5.3586285535    2.3081494856   -3.2989157494
     H     9.9660900433    4.9961611268   -1.8228022369
     H     9.1948577753    5.2696174967   -3.3962005396
     H    10.0899732226    3.7795106180   -3.1020308763
