52
-1.2455244391210376e+03 frame 50   xyz file generated by TeraChem
     C     3.3480374639    3.2679465032    0.9103173232
     O     3.5922482257    2.6346000577   -0.3450662537
     C     3.3335413715    1.3376784176   -0.5335582244
     C     2.2882772381    0.6560652668    0.0902164994
     C     1.0568570877    1.2204580617    0.6599114791
     O     0.6631638643    2.3806957586    0.6809829038
     C     0.2529402176    0.0642137234    1.1622947976
     C     0.9149257865   -1.1241892669    0.8662803501
     C     2.1873220567   -0.8133965658    0.1494128559
     O     2.9644228874   -1.6641172329   -0.2665695689
     C     0.3799835071   -2.3549415257    1.2149244735
     C    -0.8475238905   -2.3641354755    1.8803375141
     C    -1.5136940742   -1.1700589086    2.1766643454
     C    -0.9706291564    0.0645060873    1.8139669383
     C     4.2154888700    0.7015373766   -1.4675575241
     C     5.3108012009    1.3312088611   -1.9762712357
     C     6.2316645124    0.8294311350   -2.9586776379
     C     6.0917920325   -0.4153711327   -3.6044931826
     C     6.9985935925   -0.8645939567   -4.5419285652
     C     6.8423126412   -2.2037568883   -5.2085190723
     C     7.3499643511   -2.1272791781   -6.6429768007
     C     8.7953775633   -1.6635464947   -6.6465128751
     N     8.9948740707   -0.4613744800   -5.8544446682
     C     8.1019507209   -0.0416430677   -4.9071460307
     C     8.2583425417    1.2202574482   -4.2749818926
     C     7.3412699273    1.6156851561   -3.3208381455
     C     9.4232561553    2.0921966252   -4.6583683606
     C    10.6111691117    1.2231810950   -5.0513514223
     C    10.2045781610    0.2797901041   -6.1684893954
     H     4.1380893461    4.0143181493    1.0176197833
     H     3.4099760016    2.5373619753    1.7225655584
     H     2.3630492260    3.7323784049    0.9152683692
     H     0.9039521709   -3.2754559584    0.9732019295
     H    -1.2961050690   -3.3103719769    2.1711567833
     H    -2.4678728242   -1.2073794952    2.6955881110
     H    -1.4813708793    0.9975837208    2.0351462336
     H     3.9625218764   -0.3168715822   -1.7359943921
     H     5.5220497818    2.3341274396   -1.6079727226
     H     5.2465628302   -1.0550665503   -3.3617185350
     H     5.7940388211   -2.5194083436   -5.1756805210
     H     7.4190477709   -2.9666392892   -4.6646225674
     H     6.7342110367   -1.4223123493   -7.2152032532
     H     7.2858317839   -3.1006027029   -7.1403591008
     H     9.1186903034   -1.4446087499   -7.6729834231
     H     9.4513665688   -2.4655735719   -6.2710878989
     H     7.4779784991    2.5821221640   -2.8375831363
     H     9.6818387624    2.7601072528   -3.8292780746
     H     9.1509868421    2.7363668312   -5.5077577395
     H    10.9467230257    0.6419173526   -4.1835071811
     H    11.4565562926    1.8325922321   -5.3874540983
     H    11.0036330047   -0.4497356163   -6.3564875733
     H    10.0606024573    0.8412984000   -7.1059602025
