37
-9.5333675482538797e+02 frame 81   xyz file generated by TeraChem
     C     1.0118487766    0.1507046026   -1.0615226856
     N     2.1715700982   -0.1432922873   -0.2502978745
     C     2.9950105457   -1.1851286839   -0.5790746690
     C     2.7504101353   -1.9820701681   -1.7245556426
     C     3.5862644834   -3.0290131970   -2.0565594236
     C     4.7136089289   -3.3562018908   -1.2795643671
     C     4.9472003394   -2.5646004434   -0.1418448892
     C     4.1228050732   -1.5107608091    0.2079523739
     C     5.6229162796   -4.4412470401   -1.5899100962
     C     5.5646933479   -5.2799110234   -2.6495612889
     C     6.4928281403   -6.3575781855   -2.9409437219
     C     7.6071971070   -6.6718116750   -2.1194177965
     C     8.4503005197   -7.7005363326   -2.4548767871
     C     8.2265067734   -8.4612041973   -3.6152603425
     C     7.1225660115   -8.1745239417   -4.4537334211
     C     6.2797591439   -7.1229691136   -4.0903971730
     O     6.8431693381   -8.8471476156   -5.5687435409
     N     9.1339999984   -9.5134603321   -3.9234263565
     O    10.0810351392   -9.7300043701   -3.1837040925
     O     8.9324345923  -10.1896533380   -4.9519535560
     C     2.4366435326    0.6409790794    0.9345674583
     H     0.3088993840   -0.6933464002   -1.0926664981
     H     1.2910874727    0.3989526000   -2.0944205427
     H     0.4895564926    1.0095954389   -0.6384976040
     H     1.8949414342   -1.7742959434   -2.3571206698
     H     3.3544626356   -3.6102977721   -2.9447172606
     H     5.8076379589   -2.7872724615    0.4859446692
     H     4.3528107536   -0.9346059139    1.0967872110
     H     6.4333378060   -4.5647865659   -0.8715424818
     H     4.7617662880   -5.1626715419   -3.3755514608
     H     7.8032371536   -6.1007137323   -1.2187735695
     H     9.3057494677   -7.9511626221   -1.8381168307
     H     5.4375682903   -6.9121842868   -4.7430682658
     H     7.5431478815   -9.5396716337   -5.6556622140
     H     1.6815864476    1.4230535404    1.0215845625
     H     3.4220771476    1.1235938238    0.8875424299
     H     2.4002159071    0.0289961929    1.8466275098
