5
-1.3958644647772684e+02 frame 4   xyz file generated by TeraChem
     C     0.9386307000   -0.0760974621   -0.0292736493
     F     2.3172105187   -0.0771561533   -0.0293851340
     H     0.5738654238    0.7572294862    0.5806473284
     H     0.5724266337   -1.0204890276    0.3872250135
     H     0.5731767431    0.0358531540   -1.0556835585
