34
-9.8832159631003219e+02 frame 81   xyz file generated by TeraChem
     C     1.1943875704    0.0330935411    0.1071602727
     C     2.5841232666    0.6182069577    0.0462167035
     O     3.4203871704   -0.1939839890    0.8803041091
     C     4.6297559930    0.2513200958    1.2032650736
     C     5.4741910432    1.2574082589    0.7508440849
     C     5.2225067496    2.1600208056   -0.3957321114
     O     4.9604699008    1.7982442424   -1.5236780106
     O     5.3028860675    3.4444187352   -0.0315426915
     C     5.2167380082    4.3846434551   -1.1012618801
     C     6.6376010020    1.2568279292    1.5847464324
     C     6.4737123434    0.2421829217    2.5234455070
     N     5.2340396906   -0.3513135105    2.2763941073
     N     4.6790143249   -1.3580552208    2.9740026806
     C     5.4150980534   -1.8167482777    3.9497097528
     C     6.7076618141   -1.3324938670    4.2948168775
     C     7.2384386507   -0.2970296788    3.5763320151
     C     7.8868513938    1.9982417567    1.4564361489
     O     8.7645771557    2.0185853529    2.3029454085
     O     7.9971866625    2.6351102106    0.2790538050
     C     9.2037863846    3.3724831179    0.0983201340
     H     0.5222098298    0.6166165871   -0.5298236684
     H     0.8076858229    0.0484184242    1.1304528005
     H     1.1966001173   -1.0011135359   -0.2502176929
     H     2.6027751731    1.6485814256    0.4252791040
     H     2.9822890827    0.6172274841   -0.9721962485
     H     5.3190303755    5.3661954855   -0.6387545960
     H     4.2548854496    4.3009697509   -1.6136807939
     H     6.0222731303    4.2135946965   -1.8203071399
     H     4.9606639576   -2.6298057628    4.5089089396
     H     7.2452580125   -1.7848840523    5.1206405651
     H     8.2105486427    0.1344674464    3.7836151935
     H     9.1260615127    3.8245573704   -0.8906049511
     H    10.0714078542    2.7092817211    0.1473160480
     H     9.3020886765    4.1449020161    0.8656018815
