30
-7.6188475643776701e+02 frame 39   xyz file generated by TeraChem
     C     8.9010504386   -3.8698953824    5.3998940165
     C     7.6443523751   -3.0359224172    5.5091829055
     O     6.8881242231   -3.2304733069    4.3196317909
     C     5.5713607045   -2.7743214540    4.3618708339
     C     4.8348797492   -3.2735309828    3.1093282307
     C     4.7400527448   -2.0607613252    2.2161328426
     C     5.1053621386   -0.9519179870    2.9339427532
     N     5.4893176549   -1.3108063884    4.2162109468
     N     5.8287876275   -0.4978290776    5.2051759690
     C     5.8274319895    0.7787875255    4.9334891168
     C     5.4954647632    1.2993047784    3.6407641163
     C     5.1405475152    0.4502017551    2.6422788650
     C     4.2744432457   -2.0237750891    0.8600381274
     O     4.1665150044   -1.0284181023    0.1529372324
     O     3.9380746158   -3.2624486140    0.4160946601
     C     3.4569612165   -3.3086150721   -0.9208213449
     H     9.5197291562   -3.7382515327    6.2934797182
     H     9.4877360607   -3.5677817505    4.5265943859
     H     8.6543751269   -4.9314330312    5.2993592153
     H     7.8893398157   -1.9739420876    5.6348010064
     H     7.0422184673   -3.3395444958    6.3794363937
     H     5.1000252852   -3.0472943600    5.3144342311
     H     3.8442742952   -3.6670258486    3.3700360402
     H     5.4102235927   -4.0950208763    2.6720582311
     H     6.0989510379    1.4336742242    5.7548521180
     H     5.5280786466    2.3721666554    3.4781785900
     H     4.8697249267    0.7732820393    1.6442004326
     H     3.2200917482   -4.3557474600   -1.1144974139
     H     4.2189441128   -2.9582240900   -1.6232956011
     H     2.5619515385   -2.6904763963   -1.0373379854
