40
-1.0305696564340558e+03 frame 45   xyz file generated by TeraChem
     C     1.9852462076   -0.3263400631   -0.1762172090
     C     3.0148354701    0.2395218322    0.7773789812
     O     3.4570042503    1.5433924204    0.3586880532
     C     4.4183217782    1.5745203498   -0.5741060606
     O     4.9244308296    0.5842376028   -1.0613620625
     C     4.7959403552    2.9635019211   -0.9396297144
     C     4.1802575404    4.0997963957   -0.3387158035
     C     4.5595746269    5.3544672667   -0.7070772726
     N     5.5304207418    5.5083634123   -1.6531157044
     C     6.1611650307    4.4310964825   -2.2698505940
     C     5.7733442861    3.1317893199   -1.8927976297
     C     7.0705949643    4.9992529303   -3.1574574734
     C     6.9155519907    6.3848571075   -3.0052935625
     N     5.9749662469    6.6858377515   -2.0865735498
     C     7.6295046832    7.4602192394   -3.7023858721
     C     8.6110230008    7.1515662395   -4.6824378737
     C     9.2848120935    8.1465321894   -5.3416056503
     C     9.0235715988    9.5125339955   -5.0663198302
     C     8.0390547523    9.8328559502   -4.0830181206
     C     7.3602475682    8.7852253497   -3.4194072104
     C     7.7711889311   11.1973598235   -3.8011016508
     C     8.4455099437   12.1956093579   -4.4612420867
     C     9.4201482171   11.8765081994   -5.4349620799
     C     9.7019938638   10.5640605120   -5.7299557996
     H     1.6145243191   -1.2822888405    0.2087897433
     H     2.4263610942   -0.5003770607   -1.1613625593
     H     1.1353581443    0.3552423541   -0.2816196329
     H     3.8859875566   -0.4157297834    0.8586003181
     H     2.5939595982    0.4048239550    1.7716776977
     H     3.4097610190    3.9735835833    0.4110990348
     H     4.1501668134    6.2737595739   -0.3073860541
     H     6.2422174037    2.2677958413   -2.3513734972
     H     7.7408649317    4.4621227447   -3.8115129379
     H     8.8305521367    6.1134766691   -4.9139182739
     H    10.0333780218    7.8962034098   -6.0897764782
     H     6.6113776285    9.0304271091   -2.6714405964
     H     7.0208959259   11.4382673315   -3.0515735593
     H     8.2320262977   13.2373181603   -4.2371699307
     H     9.9463074881   12.6758602137   -5.9498517111
     H    10.4506972795   10.3133091298   -6.4779797990
