42
-1.1058970028071853e+03 frame 58   xyz file generated by TeraChem
     C     2.6756890067   -0.5058551788    0.4129193325
     C     3.5593800502    0.6800481265    0.7324644861
     O     3.7935678736    1.4884833406   -0.4340725711
     C     4.7873583054    1.0966619767   -1.2431476075
     O     5.4826163416    0.1219460206   -1.0386655101
     C     4.9424223532    1.9968223415   -2.4130178571
     C     4.0944458874    3.1228379161   -2.6210485820
     C     4.2785264598    3.9195233060   -3.7098981979
     N     5.2777260103    3.6284029576   -4.5908381841
     C     6.1334188475    2.5413068533   -4.4326451730
     C     5.9466746953    1.7128286619   -3.3101749189
     C     6.9969670337    2.5952565475   -5.5236394479
     C     6.5919593615    3.7188647079   -6.2601639125
     N     5.5435851785    4.3414966714   -5.6834092170
     C     7.1534383654    4.2455764347   -7.5072978097
     C     6.5771549643    5.3457072370   -8.1363324713
     C     7.1110358970    5.8446854956   -9.3237594865
     C     8.2289782206    5.2542292050   -9.9035897921
     C     8.8239187068    4.1362387481   -9.2707060189
     C     8.2847334184    3.6479896772   -8.0901639526
     O     9.9089658494    3.6196755424   -9.8979476799
     C    10.5441199062    2.5143109561   -9.2937581823
     O     8.8185608603    5.6602799622  -11.0516143705
     C     8.2427217576    6.7626643706  -11.7197353113
     H     2.4584720418   -1.0604848432    1.3320670705
     H     3.1751962112   -1.1821989408   -0.2861658488
     H     1.7269046522   -0.1793319847   -0.0242710402
     H     4.5229299209    0.3599371935    1.1369394137
     H     3.0788994970    1.3601962528    1.4394465402
     H     3.3018395111    3.3502123167   -1.9197269211
     H     3.6857071700    4.7928867707   -3.9516030922
     H     6.5914644825    0.8552106417   -3.1513804086
     H     7.7980638386    1.9033617322   -5.7373743315
     H     5.7038386000    5.8151252917   -7.6963699076
     H     6.6434523679    6.7021571321   -9.7949803092
     H     8.7444812646    2.7932681913   -7.6077754901
     H    11.3875701987    2.2631265114   -9.9389422589
     H     9.8701530936    1.6505542961   -9.2252243930
     H    10.9153377620    2.7627487177   -8.2910766733
     H     8.8515167579    6.9252501705  -12.6104992692
     H     8.2631037380    7.6654651152  -11.0960860734
     H     7.2077632519    6.5538160653  -12.0188112109
