66
-1.9347779823568881e+03 frame 33   xyz file generated by TeraChem
     F     1.9043474286    0.0084645201   -1.0538546735
     C     0.5775134420    0.0234547272   -0.8523935971
     C    -0.0902022063    1.2386542275   -0.8495854995
     C    -1.4633359079    1.2434842695   -0.6277190026
     C    -2.1688376208    0.0535604448   -0.4052829745
     C    -1.4581529695   -1.1546350136   -0.4282232957
     C    -0.0853839278   -1.1780384484   -0.6498358982
     C    -3.6381279786    0.0878794129   -0.2028731510
     C    -4.4228575999    0.7266773078   -1.1608603594
     C    -5.8121655203    0.8065437635   -1.0731920643
     C    -6.5394837809    1.5161840743   -2.1539664843
     C    -6.3058666786    1.1724328492   -3.4924397151
     C    -6.9409186319    1.8430454574   -4.5314979590
     C    -7.8166676760    2.8723858202   -4.2214264321
     C    -8.0683314583    3.2516594912   -2.9114031251
     C    -7.4241555610    2.5697214518   -1.8840294092
     F    -8.4357125129    3.5183032828   -5.2234481854
     C    -6.4664982130    0.1908269420    0.0188896883
     C    -5.6889953519   -0.4433666868    1.0350375170
     C    -4.2656175231   -0.4811737654    0.9291692303
     C    -3.5200435672   -1.0783143828    1.9941121438
     C    -4.1335335857   -1.6214121365    3.0766378973
     C    -5.5577065668   -1.6220692412    3.2105967921
     C    -6.3381484312   -1.0467109546    2.1620221747
     C    -7.7641431410   -1.0752702353    2.2309021057
     C    -8.5079848908   -0.4425844993    1.1854065173
     C    -7.8921794459    0.1568360028    0.1343724305
     C    -8.3935502656   -1.7047194868    3.3291267554
     C    -7.6033995352   -2.2302609836    4.3497538200
     C    -6.2100183322   -2.1938592260    4.3271023532
     C    -5.4804267604   -2.7971852050    5.4694988727
     C    -5.7768807432   -4.1083963319    5.8659416168
     C    -5.1444594054   -4.6944005997    6.9564051528
     C    -4.2065306880   -3.9522692042    7.6579813554
     C    -3.8892965888   -2.6491498258    7.3047366107
     C    -4.5316972634   -2.0783717883    6.2106059073
     F    -3.5906351108   -4.5150888406    8.7110716536
     C    -9.8668271092   -1.8255018021    3.4522941438
     C   -10.6410250227   -2.4323071733    2.4532038075
     C   -12.0153664410   -2.5856150291    2.6005760824
     C   -12.6154812937   -2.1273992046    3.7640297813
     C   -11.8854481027   -1.5282055773    4.7790425098
     C   -10.5119736399   -1.3836119493    4.6152315687
     F   -13.9428385274   -2.2726986509    3.9136400953
     H     0.4628707926    2.1585525315   -1.0102482197
     H    -1.9971057161    2.1898988050   -0.6098632490
     H    -1.9895527358   -2.0914284558   -0.2847955358
     H     0.4699901359   -2.1102099986   -0.6725472116
     H    -3.9296444138    1.1833619555   -2.0155161351
     H    -5.6270138419    0.3553296630   -3.7211255190
     H    -6.7717378424    1.5744181476   -5.5694055202
     H    -8.7498821671    4.0715691468   -2.7082753634
     H    -7.5982605352    2.8725805040   -0.8552313994
     H    -2.4370382056   -1.0872214384    1.9333014681
     H    -3.5345402568   -2.0751224196    3.8588711079
     H    -9.5912347490   -0.4385192289    1.2430254531
     H    -8.4911210350    0.6149537402   -0.6452718106
     H    -8.0962463577   -2.6955657608    5.1999011901
     H    -6.5056134311   -4.6830204332    5.3005880227
     H    -5.3641991278   -5.7126205312    7.2613320416
     H    -3.1589832830   -2.0951513979    7.8859988175
     H    -4.3055982182   -1.0505840670    5.9400468095
     H   -10.1582887931   -2.8088288270    1.5555108519
     H   -12.6189957848   -3.0620485746    1.8346187158
     H   -12.3911102740   -1.1805260151    5.6742763591
     H    -9.9295037250   -0.9058806045    5.3984750424
