37
-1.0817263951640059e+03 frame 48   xyz file generated by TeraChem
     C     1.3715832516    1.3332733335    1.0093888988
     C     2.1000608581    0.1432434970    0.4223237144
     O     2.8273318288   -0.5707568786    1.4365171568
     C     4.0535455065   -0.1086910896    1.7225230160
     O     4.5538723158    0.8588899010    1.1754161254
     C     4.7048917227   -0.8634623542    2.7910074198
     C     5.8084928893   -0.3660604700    3.4925968189
     C     6.6030708008    0.7941891844    3.4008343752
     C     7.6102404545    0.9540903206    4.3100615553
     C     7.7879207918   -0.0395337662    5.3080847394
     N     7.0623796893   -1.1193871976    5.4270659738
     N     6.0993658975   -1.2694720162    4.5065524254
     C     5.2107164763   -2.3199121100    4.4779673448
     C     4.3401285030   -2.0808849672    3.4175223666
     C     3.2639792664   -3.0152377774    2.9924215932
     O     2.3749502948   -3.4030036133    3.7276968291
     O     3.4239844161   -3.4118557053    1.7353476284
     C     2.4538949794   -4.3487662042    1.2242507153
     C     1.2556839325   -3.6322429976    0.6431145715
     C     5.3867683388   -3.5044963922    5.3730681298
     O     6.4954447246   -3.9144997950    5.6856254140
     N     4.2319580625   -4.0610669103    5.8014673035
     H     0.7661634300    1.8150182255    0.2340286119
     H     2.0819981497    2.0686107367    1.3971211991
     H     0.7067902927    1.0193887295    1.8202116166
     H     2.7960265862    0.4488082319   -0.3627613945
     H     1.4007249729   -0.5927465323    0.0199800839
     H     6.3898429858    1.5079621906    2.6142668802
     H     8.2624356532    1.8201905539    4.2907590904
     H     8.5643731600    0.0605776007    6.0610340482
     H     2.1649500600   -5.0273066667    2.0302113330
     H     2.9990643682   -4.9059760450    0.4595411954
     H     0.7319417920   -3.0625027249    1.4160659177
     H     0.5595892222   -4.3647695360    0.2209917472
     H     1.5648969440   -2.9494255527   -0.1531829125
     H     3.3351497853   -3.7731922358    5.4260144288
     H     4.2980146969   -4.9424423679    6.2903110929
