63
-2.4862669051190951e+03 frame 90   xyz file generated by TeraChem
     C     1.1447843627   -2.1373147184   -2.0581273919
     C     2.1238671945   -1.0905645090   -1.5606067380
     N     2.9394649901   -1.6347522671   -0.4900977107
     C     3.9253395506   -0.9718514075    0.1478175780
     C     4.1969655592    0.3911749563   -0.1398390360
     C     5.2349004330    1.0506887175    0.4913585225
     C     6.0067847850    0.4238581411    1.4982350230
     C     5.7308771342   -0.9424001468    1.7578999667
     C     4.7332961565   -1.6458339146    1.1143354979
     C     4.5118606718   -3.1048274472    1.3878852626
     C     7.0189275004    1.1868116727    2.1891665068
     C     7.5962841084    2.3303796670    1.4501315180
     C     8.3325371237    2.0621827957    0.2879649364
     C     8.9125297300    3.0931457782   -0.4395445322
     C     8.7177071727    4.4136533087   -0.0474689299
     C     7.9534199449    4.7007098983    1.0848612550
     C     7.4037710324    3.6721295549    1.8380791536
     S     6.3535563513    4.1094897203    3.2341034867
     O     5.1862888489    3.1615106242    3.0740798371
     O     7.1127334172    3.8208999526    4.4589998796
     O     5.9524331335    5.5035345878    3.0316772533
     S     9.3718354896    5.7512913061   -1.0676693297
     O     8.2116467637    6.1410021802   -1.8960829607
     O     9.8008264769    6.7724300093   -0.0932273723
     O    10.4726950563    5.1132704367   -1.8190601617
     C     7.4943538744    0.8852770990    3.4808162012
     C     8.7541331183    1.3927035110    3.9098126136
     C     9.2616557243    1.0925894995    5.1425169643
     C     8.5079696689    0.3204629805    6.0642724806
     C     7.2047815309   -0.1553448384    5.6883582609
     C     6.7490745800    0.1220754219    4.4282615751
     C     6.3652670765   -0.9035693533    6.6816832437
     N     8.9861881026    0.0447026634    7.2849006215
     C    10.2555106378    0.5119763666    7.8176970176
     C    10.4604201518   -0.0118151243    9.2267525497
    Na     3.5824611159    2.0626360126    2.3666626553
     H     0.5314712738   -1.7242965528   -2.8634630128
     H     0.4747235214   -2.4648779026   -1.2558827450
     H     1.6715751371   -3.0131679776   -2.4528993031
     H     1.5794245098   -0.2099541071   -1.1931411384
     H     2.7689332223   -0.7516445710   -2.3829271225
     H     2.8282308095   -2.6182408109   -0.2916016829
     H     3.6283704153    0.9066298366   -0.9074950693
     H     5.4512193370    2.0842453898    0.2303151747
     H     6.3680366180   -1.4824533865    2.4523283136
     H     5.2232332685   -3.4727736388    2.1312530063
     H     4.6397285323   -3.7108107840    0.4806983340
     H     3.5010890195   -3.2989351658    1.7719360442
     H     8.4706829606    1.0295642744   -0.0235070122
     H     9.5157910303    2.8917491966   -1.3193380787
     H     7.7734887610    5.7318145971    1.3738342704
     H     9.3410475826    1.9920277842    3.2221879089
     H    10.2377470960    1.4688822417    5.4264093661
     H     5.7425483211   -0.1926822738    4.1704899822
     H     6.1783113283   -0.3064997456    7.5841530421
     H     6.8436195315   -1.8405711212    6.9982872871
     H     5.3944271672   -1.1608253634    6.2506475978
     H     8.4001324492   -0.4850284251    7.9144931863
     H    10.2712095917    1.6095047980    7.8114544150
     H    11.0679051267    0.1704519404    7.1637497793
     H     9.6690671844    0.3393636660    9.8981457245
     H    11.4162685193    0.3450445438    9.6191563044
     H    10.4746231927   -1.1070214811    9.2434941085
