22
-5.4200291007186638e+02 frame 9   xyz file generated by TeraChem
    Br     4.3944116505   -1.2860249152    0.0422946105
     C     3.0172466066    0.1042161759    0.0315760674
     C     3.4243225373    1.4431877892    0.0302682848
     C     2.4773010790    2.4579725130    0.0197448559
     C     1.1306609976    2.0957936180    0.0106268635
     C     0.7256118962    0.7384031723    0.0125911715
     C     1.6873735132   -0.2752266891    0.0232377442
     C    -0.7177755467    0.7408202605    0.0011121616
     C    -1.6830972924   -0.2694724278   -0.0022726309
     C    -3.0116591613    0.1144917228   -0.0143125064
    Br    -4.3936974272   -1.2709141936   -0.0179221996
     C    -3.4142334359    1.4547841741   -0.0232653178
     C    -2.4635198310    2.4661522906   -0.0199039775
     C    -1.1180934899    2.0995808380   -0.0075471211
     N     0.0076425316    2.8907089721   -0.0013946899
     H     4.4814869528    1.6838412742    0.0372580294
     H     2.7843333237    3.4996561025    0.0184526371
     H     1.4056967401   -1.3227383431    0.0244432855
     H    -1.4050044130   -1.3179165845    0.0045389886
     H    -4.4705672865    1.6990013025   -0.0328295339
     H    -2.7669379061    3.5088696845   -0.0268137790
     H     0.0093679907    3.8986931971   -0.0058829440
