86
-1.9659226609459538e+03 frame 75   xyz file generated by TeraChem
     N     0.6425987710   -1.5719163938   -3.7166539098
     C    -0.1653611081   -0.8450908038   -3.2939458802
     C    -1.1868129030    0.0008190213   -2.8085319927
     C    -0.9375080187    1.1816929197   -2.1039884505
     O    -1.9896922741    1.8970251639   -1.7224616227
     C    -1.5565787480    3.0854716565   -0.9979278448
     C    -0.0430939756    2.9906858746   -1.0105533596
     C     0.2753608287    1.7987073916   -1.6957609583
     C     1.5578572247    1.2660273378   -1.9324033186
     N     2.6283397036    0.8406275317   -2.1140081390
     C     0.7262756778    3.9826619539   -0.4094829134
     C     2.1241933556    4.0201483499   -0.4503420280
     C     3.0878871975    4.9016889423    0.0545889947
     C     2.9630152573    6.0110874717    0.9107347068
    Br     1.2482170596    6.2990819612    1.8457445622
     C     4.0002542293    6.9093955921    1.1906944034
     C     3.9081943178    7.8936328866    2.1907555103
     C     4.9163455904    8.7963100772    2.5095783292
     C     4.9196896159    9.8051637724    3.4801947550
     N     4.0387347572   10.0452522697    4.4658793724
     C     2.8947060714    9.2265555095    4.8147833524
     C     4.3924720668   11.2026618904    5.1928071164
     C     5.5830862479   11.7130474122    4.6785640268
     C     6.0356034946   10.8425165889    3.5368180366
     C     6.1203422666   11.6309539399    2.2204616006
     C     7.3830208807   10.1670959942    3.8458929416
     C     6.1482329777   12.8490691437    5.2338815562
     C     5.4976261554   13.4653085432    6.3069037633
     C     4.3024615006   12.9451306964    6.8050877686
     C     3.7238433840   11.8001745570    6.2539048974
     C     5.2909608728    6.8008434727    0.4017345521
     C     5.2338472691    5.8948094548   -0.8360718752
     C     4.5184228160    4.6157014156   -0.3722272105
     C     4.4585460096    6.5080671530   -2.0084141459
     C     4.3641728198    5.7810036941   -3.2035456516
     C     3.6690475968    6.2812647656   -4.2990600773
     C     3.0516375530    7.5306309289   -4.2261290195
     C     3.1398124905    8.2647937912   -3.0483100633
     C     3.8359391577    7.7572332012   -1.9493948622
     C     6.6754210168    5.6350419316   -1.2842423090
     C     7.2932340417    4.3847348052   -1.1942207264
     C     8.6199645248    4.2112427376   -1.5934892426
     C     9.3545911488    5.2856565675   -2.0842842147
     C     8.7496452862    6.5393699558   -2.1791084653
     C     7.4263180769    6.7071533408   -1.7873154556
     C    -2.0747704632    4.2904134771   -1.7701292589
     C    -2.1442798437    2.9906720163    0.4030660005
     C    -2.5235885594   -0.3837265269   -3.0672576297
     N    -3.6206515831   -0.7125461987   -3.2857066131
     H     0.1724373590    4.7755440180    0.0759205321
     H     2.5765258261    3.2194852665   -1.0294975940
     H     2.9717126142    7.9461092689    2.7289101923
     H     5.8275413830    8.7733340282    1.9200139768
     H     3.1809100970    8.1722859230    4.7942640611
     H     2.0639483126    9.3987848846    4.1232423622
     H     2.5742496858    9.4759612102    5.8256278289
     H     5.1672727054   12.1155507373    1.9872181969
     H     6.3919478158   10.9706496004    1.3908153690
     H     6.8914379272   12.4029592477    2.3111976923
     H     7.3327133203    9.5885319165    4.7733567815
     H     8.1535601960   10.9370289563    3.9567508780
     H     7.6798190383    9.5008197029    3.0297031047
     H     7.0779686640   13.2543587810    4.8429188635
     H     5.9238578310   14.3586581129    6.7541397173
     H     3.8053061654   13.4383000989    7.6355240835
     H     2.7880056001   11.4145970916    6.6451435096
     H     6.0737717753    6.4112197630    1.0660718023
     H     5.6212301376    7.8034591725    0.1069197931
     H     5.0759161588    4.1910492637    0.4741952193
     H     4.5161584111    3.8643631811   -1.1665771585
     H     4.8547054368    4.8130347098   -3.2800126464
     H     3.6126514135    5.6968318044   -5.2139938952
     H     2.5093945426    7.9255563238   -5.0812890837
     H     2.6643107342    9.2397262065   -2.9750829197
     H     3.8744192201    8.3501566116   -1.0406472842
     H     6.7490236276    3.5255083681   -0.8145064137
     H     9.0761067487    3.2272633774   -1.5180187189
     H    10.3873206081    5.1494333506   -2.3943731935
     H     9.3087775301    7.3882595588   -2.5646807918
     H     6.9604590540    7.6852976449   -1.8846995536
     H    -1.6650355806    4.3040117233   -2.7842539867
     H    -1.7823988144    5.2122796165   -1.2592351303
     H    -3.1670808680    4.2518045849   -1.8228792892
     H    -1.7880604516    2.0894142392    0.9106715412
     H    -3.2363540295    2.9601976972    0.3404869015
     H    -1.8537023901    3.8659612302    0.9913280131
