39
-1.6380881656423717e+03 frame 46   xyz file generated by TeraChem
     C     1.1990420838    0.0894750792    0.2682849488
     O     2.6024643845    0.2389184888    0.0423688889
     C     3.0160741462   -0.1249239849   -1.1740704987
     O     2.2901416768   -0.4791780951   -2.0708305840
     C     4.5008573891   -0.0485910292   -1.2796920188
     C     5.3682924330   -0.8122288634   -0.5019369246
     C     4.9725195272   -1.8038516838    0.5199837740
     O     3.9350913579   -2.4304424077    0.3446603080
     C     5.7646464871   -1.9863282735    1.7634612995
     C     5.6097247698   -3.1818761660    2.4723026394
     C     6.2717843543   -3.3826718000    3.6749996607
     C     7.0750158588   -2.3619519900    4.1792517072
     C     7.2268406177   -1.1541061139    3.5029317590
     C     6.5742450584   -0.9758936720    2.2901177033
    Cl     7.9016760425   -2.5985957063    5.6907233053
     N     6.6469081596   -0.5422401308   -0.9427999252
     C     6.6051250129    0.3901507536   -1.9714099953
     C     5.2582507344    0.7197378337   -2.1851187697
     C     4.8355076994    1.7304214396   -3.1558291165
     O     5.5784194256    2.2372673246   -3.9765849030
     O     3.5434205143    2.0494344354   -3.0325885472
     C     3.0579031186    3.0045322172   -3.9753677132
     C     7.8270224196    0.7764437019   -2.5531903024
     C     8.9721855429    0.1849902313   -2.0937825543
     C     8.8689963237   -0.7900952036   -1.0694261620
     N     7.7495599539   -1.1629026000   -0.5040200480
     H     1.0259313480    0.4498626702    1.2819184126
     H     0.9156947016   -0.9625443531    0.1811487934
     H     0.6297936228    0.6801672938   -0.4534426597
     H     4.9633310905   -3.9533176764    2.0651794797
     H     6.1659843022   -4.3139463035    4.2216261937
     H     7.8452368579   -0.3679551990    3.9231753481
     H     6.6810824748   -0.0313387721    1.7651578733
     H     1.9975447531    3.1202678344   -3.7528383610
     H     3.1970511019    2.6392950247   -4.9959066761
     H     3.5809447972    3.9573379787   -3.8598690419
     H     7.8105454251    1.5122642966   -3.3484836725
     H     9.9444465188    0.4317951283   -2.5053800670
     H     9.7504161919   -1.3024473269   -0.6951232872
