36
-1.0274045406610039e+03 frame 52   xyz file generated by TeraChem
     C     1.2345698802   -0.9597632716   -0.6877968491
     C     2.1773359717    0.2196190529   -0.5835126866
     O     2.8530614915    0.4637096376   -1.8291562530
     C     3.9413158225   -0.2741442718   -2.0607163591
     O     4.3738927485   -1.1108358244   -1.2897733959
     C     4.5987615615   -0.0179422911   -3.3476941534
     C     5.6685869205   -0.7425537033   -3.8171255330
     C     6.0356610836   -0.2593255828   -5.0882923338
     C     5.1558782957    0.8013776558   -5.4009662362
     N     4.2934305313    0.9234448805   -4.3180016766
     N     3.3024414365    1.8266317010   -4.1742252869
     C     3.1358923008    2.6469276132   -5.1600703030
     C     3.9109489002    2.6590360956   -6.3607280961
     C     4.9578703504    1.7127303102   -6.4983399553
     C     5.7180448799    1.7252640658   -7.6834039412
     C     5.4350808828    2.6430146085   -8.6783865957
     C     4.3983565271    3.5781364138   -8.5370816197
     C     3.6425106954    3.5846704985   -7.3826629948
     C     7.1449651804   -0.8262287186   -5.8589474542
     O     7.5449342584   -0.4757002103   -6.9548530596
     O     7.7180685870   -1.8424586965   -5.1896855653
     C     8.8177179924   -2.4625348811   -5.8514087144
     H     0.6876574514   -1.0784555571    0.2538690406
     H     1.7889409932   -1.8819906746   -0.8818784353
     H     0.5066082193   -0.8070844798   -1.4909170800
     H     2.9239543040    0.0649267398    0.1997244021
     H     1.6364249075    1.1481816862   -0.3873171145
     H     6.1366309535   -1.5551693493   -3.2825851715
     H     2.3322372868    3.3674918456   -5.0257150762
     H     6.5214892482    1.0082775830   -7.7992055526
     H     6.0310221220    2.6366526347   -9.5870033979
     H     4.1938527991    4.2906683148   -9.3309304330
     H     2.8339002645    4.2988264860   -7.2479844032
     H     9.1335543574   -3.2733415542   -5.1948836354
     H     9.6332284268   -1.7485811823   -5.9949606524
     H     8.5113563315   -2.8545392323   -6.8245448737
