27
-8.3466544184024565e+02 frame 31   xyz file generated by TeraChem
     C     1.0715417631   -0.6543056226   -0.0230153396
     O     2.4944142632   -0.7293021529    0.0256677821
     C     3.1055421906   -0.6163023264   -1.1706789798
     O     2.5069403917   -0.4742768524   -2.2145722149
     C     4.5552069972   -0.6819477808   -0.9886332591
     C     5.2735597554   -0.7518072901    0.1962158155
     C     6.6426447765   -0.7680087897   -0.0993107153
     C     6.7618215840   -0.7098531969   -1.4986945114
     N     5.4748224138   -0.6562543670   -2.0224451325
     N     5.1734952348   -0.5987323510   -3.3231124081
     C     6.1975170903   -0.5880347720   -4.1394978829
     C     7.5550586871   -0.6342306394   -3.7386645147
     C     7.8389110992   -0.6970051333   -2.4005510697
     C     7.7731810876   -0.8187807952    0.8201780300
     O     8.9442087361   -0.8248153330    0.4855027440
     O     7.3732452310   -0.8535185949    2.1021131206
     C     8.4232680480   -0.8847048035    3.0664108986
     H     0.7369706012   -0.7750096576    1.0073590683
     H     0.6647880136   -1.4498834462   -0.6527073616
     H     0.7486271948    0.3129082323   -0.4177548240
     H     4.8304396107   -0.7820903296    1.1810426624
     H     5.9280015134   -0.5405642714   -5.1905589776
     H     8.3395885413   -0.6210804931   -4.4871773303
     H     8.8458208389   -0.7378723351   -2.0017276916
     H     7.9291613649   -0.9024952475    4.0377950459
     H     9.0554002036    0.0025585022    2.9756899962
     H     9.0403662584   -1.7776500415    2.9358702935
