40
-1.5610691896640371e+03 frame 16   xyz file generated by TeraChem
    Cl    -1.7646587353    0.2521893795    0.0844450083
     C    -0.0290913906    0.1474388588   -0.0189489470
     C     0.7531048556    0.7233648145    0.9780434093
     C     2.1356666674    0.6359658854    0.8894755809
     C     2.7500666232   -0.0211416211   -0.1844416625
     C     1.9392090639   -0.5907784147   -1.1725543537
     C     0.5540466130   -0.5108769505   -1.0969758407
     C     4.2124874264   -0.1044288619   -0.2606377377
     N     4.9610058559    0.4423631589    0.7161746722
     N     6.2210996499    0.2000413584    0.3566951909
     C     6.3174842785   -0.4979315022   -0.8424749297
     C     5.0037542867   -0.7017240578   -1.2541063630
     C     7.6017842200   -0.8143832411   -1.3286789561
     C     8.7101143831   -0.4276570884   -0.6077720379
     C     8.5557997368    0.2860546943    0.6196092848
     C     7.3122831686    0.5865109810    1.0786147312
     C    10.0514533742   -0.7296233345   -1.0655697802
     N    11.1805643167   -0.4299312351   -0.4964295476
     N    12.1736585475   -0.9257824843   -1.3049930763
     C    11.5862177821   -1.4958951333   -2.3148277432
     O    10.2353971915   -1.4072004545   -2.2243743086
     C    12.1867499582   -2.1707291051   -3.4524086484
     C    13.5828347715   -2.2552854218   -3.5361204718
     C    14.1714937131   -2.8963865781   -4.6176678797
     C    13.3780489174   -3.4554332733   -5.6196009195
     C    11.9896718793   -3.3717277963   -5.5369152094
     C    11.3909883210   -2.7317574924   -4.4578642593
     H     0.2835677460    1.2341064263    1.8125769109
     H     2.7555171080    1.0815392272    1.6608427047
     H     2.3877381792   -1.1072158177   -2.0161695692
     H    -0.0682677830   -0.9552068209   -1.8669365182
     H     4.6871287365   -1.2129359631   -2.1509670181
     H     7.6959107997   -1.3580395018   -2.2621494067
     H     9.4303596512    0.5869112454    1.1833926647
     H     7.0998868598    1.1219008569    1.9954929418
     H    14.1896209076   -1.8162330180   -2.7502091243
     H    15.2540563585   -2.9605594340   -4.6801948993
     H    13.8426020893   -3.9563729223   -6.4644548793
     H    11.3693187517   -3.8060797693   -6.3156773210
     H    10.3092945911   -2.6658096303   -4.3929316775
