39
-9.9253260438647726e+02 frame 54   xyz file generated by TeraChem
     C     1.7512978508    0.4123166142    0.9937368090
     C     2.9930047544   -0.2035312266    0.4565528293
     C     4.3014905347    0.4053368385    0.7395411238
     O     4.5415000317    1.4089255988    1.3737324134
     N     5.2620381427   -0.4494891974    0.1175018612
     C     4.5975893087   -1.5138024817   -0.5119421786
     C     3.1773154726   -1.3416601438   -0.2707760660
     C     2.1529656989   -2.2733737191   -0.7634456605
     C     1.0062621132   -1.7885850315   -1.4069035147
     C     0.0318297787   -2.6659924401   -1.8713838704
     C     0.1853962701   -4.0397863503   -1.6969728020
     C     1.3193899382   -4.5324427599   -1.0545746737
     C     2.2976329854   -3.6577757177   -0.5927152304
     C     5.2955865103   -2.4269593174   -1.2261371587
     C     6.7051467349   -2.2982982058   -1.2994515187
     N     7.3190492018   -1.2229449694   -0.6350885764
     C     6.6352965290   -0.2420384942    0.0969655715
     O     7.1933945527    0.6800538000    0.6451670978
     C     8.6903397217   -1.2843495552   -0.8407798007
     C     9.6743577285   -0.3131517337   -0.2929663871
     C     8.9247096262   -2.3895337602   -1.6249672806
     C     7.6957548405   -3.0360927829   -1.9218324358
     C     7.5083992449   -4.2664478576   -2.7441605664
     H     1.4419270151    1.2757938120    0.3907915543
     H     1.9286666280    0.7854371404    2.0078394212
     H     0.9244595023   -0.3025451327    1.0109749646
     H     0.8937579045   -0.7192588146   -1.5622689926
     H    -0.8478047636   -2.2748546273   -2.3753043649
     H    -0.5768784603   -4.7241832052   -2.0592231431
     H     1.4412848155   -5.6021000948   -0.9070812736
     H     3.1693943599   -4.0445857870   -0.0721430880
     H     4.7914249407   -3.2378569314   -1.7375858238
     H     9.6606646637   -0.2898705858    0.8012341004
     H     9.4737240843    0.7077772291   -0.6312874764
     H    10.6739083506   -0.6058393515   -0.6259318148
     H     9.9065554267   -2.7048948870   -1.9563205330
     H     7.8579806438   -4.1129699162   -3.7722039814
     H     6.4579115072   -4.5677419009   -2.7915219559
     H     8.0790142828   -5.1076729107   -2.3330180653
