114
-2.8497833226178727e+03 frame 64   xyz file generated by TeraChem
     C     2.9610170971   -2.2947950746   -2.7689990945
     O     3.7958655632   -1.5353284975   -1.9205804527
     C     4.3248387723   -2.1621192464   -0.8391628388
     C     4.1069111073   -3.5020023838   -0.5156697657
     C     4.6929889254   -4.0283303609    0.6333243267
     C     5.4903965857   -3.2415769247    1.4456244772
     C     5.7243500285   -1.9011557183    1.1170943700
     C     5.1331249455   -1.3658811349   -0.0215697552
     N     6.5562293052   -1.1420334064    1.9626798259
     C     6.9149775193    0.1984775374    1.6076447462
     C     7.8985734963    0.4164199610    0.6467283700
     C     8.2373736585    1.7191311186    0.2926996390
     C     7.5993982434    2.7974717437    0.8979123565
     C     6.6204210440    2.5643075220    1.8599195415
     C     6.2680141764    1.2678843020    2.2197526868
     N     5.9567564332    3.6737757175    2.4788582016
     C     6.5176233876    4.1940377699    3.6225502176
     O     7.5456820889    3.7352709608    4.0972615862
     C     5.8195072884    5.3355053093    4.2697709681
     C     6.2449416390    5.8766201218    5.4217156826
    Si     7.7363113101    5.5166291961    6.5347441405
     C     9.3284038202    5.9523594832    5.5609503691
     C     9.1707510157    7.2506366361    4.7620192356
     C    10.6221724669    6.0053777301    6.3805482150
     C     7.4108778283    6.7577854363    7.9691578209
     C     6.0649302489    6.4783831862    8.6507521444
     C     8.5063723189    6.8159576623    9.0377525285
     C     7.7378294962    3.7616567739    7.3185682043
     C     6.3681863141    3.0819619774    7.2182080784
     C     8.8359916839    2.8075891485    6.8403476521
     O     4.7083660301    5.8719240759    3.6647985470
     C     4.1911484563    5.3138957985    2.5318907436
     C     4.7857786561    4.2088673296    1.9110688554
     C     4.2148246559    3.6824900131    0.7583709675
     C     3.0585987309    4.2543961590    0.2193482754
     O     2.5873997143    3.6627225503   -0.9077218682
     C     1.4498717105    4.2345691598   -1.5177307172
     C     2.4706853126    5.3584083313    0.8381782213
     C     3.0466760278    5.8779781042    1.9954744296
     C     7.0279983801   -1.6416911032    3.1566330052
     O     7.7274603664   -0.9734741362    3.9033077289
     C     6.6472979429   -3.0354822687    3.5062154193
     C     6.9182964687   -3.5661991446    4.7070905664
    Si     7.7555443134   -2.8326858598    6.2332272054
     C     7.5659063098   -4.2419725907    7.5250060221
     C     6.1128685826   -4.5988851992    7.8505082778
     C     8.3386006809   -5.5038850962    7.1251708187
     C     9.6540500068   -2.5837574427    6.0298928165
     C    10.2189822449   -3.3093279966    4.8048124897
     C    10.1328880548   -1.1299341262    6.0510615646
     C     6.9099953490   -1.2458949891    6.8900558927
     C     5.4121841220   -1.1422978478    6.5941110861
     C     7.1808750700   -1.0621009197    8.3886272197
     O     6.0411394111   -3.8176593338    2.5544058083
     H     2.6338804748   -1.6142920505   -3.5566726344
     H     2.0832602313   -2.6761879769   -2.2319973275
     H     3.5029604980   -3.1362347636   -3.2193263410
     H     3.4871813976   -4.1401109574   -1.1343625633
     H     4.5339058726   -5.0649860532    0.9135569922
     H     5.2881911947   -0.3284812553   -0.2952053409
     H     8.3921376682   -0.4334470624    0.1848647647
     H     9.0059226068    1.8943095191   -0.4538114443
     H     7.8566322296    3.8188796351    0.6344539155
     H     5.5046923385    1.0933977083    2.9712610188
     H     5.6196454115    6.7113007465    5.7470391731
     H     9.4179112170    5.1272554773    4.8417175688
     H     9.0143066639    8.1124016206    5.4245780520
     H     8.3232333430    7.2068817082    4.0701998412
     H    10.0752781932    7.4573280219    4.1729869134
     H    10.6762411508    6.9209486290    6.9802010177
     H    11.4951762138    6.0109887679    5.7137016635
     H    10.7370218387    5.1571287644    7.0637366127
     H     7.3462848444    7.7516297897    7.4968457932
     H     6.0770847339    5.5093440128    9.1659872827
     H     5.2236414913    6.4646741640    7.9484401240
     H     5.8461678346    7.2420259859    9.4103698312
     H     8.6721264213    5.8336449787    9.4991652833
     H     8.2206926245    7.5018490776    9.8479231199
     H     9.4663201820    7.1596891200    8.6433802716
     H     7.9240581219    3.9637230710    8.3862305729
     H     6.1373559787    2.8292026079    6.1778493137
     H     5.5551985243    3.7126664586    7.5949291616
     H     6.3575630013    2.1458129838    7.7943668756
     H     8.7227386372    2.5721017284    5.7785737305
     H     8.7857043937    1.8620805001    7.3991246442
     H     9.8412820762    3.2165428092    6.9873773465
     H     4.6576795197    2.8281014128    0.2596079981
     H     1.2507310321    3.6338845676   -2.4065774628
     H     1.6346646384    5.2745218409   -1.8154417287
     H     0.5764997151    4.1985018100   -0.8540705484
     H     1.5742015947    5.8180819196    0.4394554492
     H     2.6089660290    6.7349929174    2.4978603037
     H     6.5752744714   -4.5985966842    4.8035592269
     H     8.0303989281   -3.8542083957    8.4455171053
     H     5.5720345980   -4.9439893508    6.9596061900
     H     5.5572511791   -3.7485256575    8.2597764715
     H     6.0641599069   -5.4109849705    8.5897292181
     H     7.9454897578   -5.9432324391    6.1988699158
     H     8.2560959885   -6.2751925021    7.9038832570
     H     9.4056281198   -5.3085869275    6.9698160208
     H    10.0704061041   -3.0750606234    6.9245646078
     H     9.8391835673   -2.8627027908    3.8791090192
     H     9.9561445759   -4.3733028413    4.7900159138
     H    11.3153634880   -3.2361451691    4.7822775059
     H     9.7608650883   -0.5763127731    5.1841482591
     H    11.2311603033   -1.0909829676    6.0280826265
     H     9.8073231662   -0.5961963997    6.9509443790
     H     7.4051553803   -0.4231335518    6.3580619396
     H     4.8401673049   -1.9408777858    7.0815707147
     H     5.2027316702   -1.1983697403    5.5206320841
     H     5.0140877547   -0.1866777367    6.9630711004
     H     6.6858516571   -1.8349398178    8.9887820988
     H     6.8010853838   -0.0906149158    8.7338057551
     H     8.2512219320   -1.0977422337    8.6252279480
