38
-1.1167696001171864e+03 frame 29   xyz file generated by TeraChem
     C     3.5699696664   -0.3597916669    1.0303931877
     C     2.4974780569   -0.2592746331   -0.0447872068
     N     2.8531481212    0.6681065890   -1.1060290625
     C     2.7024369886    2.0531426657   -1.0730357007
     C     2.1407120073    2.8425768415   -0.0733622977
     C     2.0975731559    4.2175099625   -0.2915638181
     C     2.5974845683    4.7997937435   -1.4661590300
     C     3.1593811429    4.0082520457   -2.4597651144
     C     3.2128405168    2.6284206313   -2.2605398612
     C     3.7121974686    1.5305895465   -3.0492577616
     C     3.4662163548    0.3256792767   -2.2736770966
     N     3.7884829887   -0.8808865430   -2.6570298153
     C     4.3876566494   -0.9282831302   -3.8820041967
     C     4.7781436720   -2.1792776420   -4.3980280654
     C     5.3910797280   -2.2712730000   -5.6291503801
     C     5.7805744312   -3.6037201993   -6.1401647567
     O     5.5840565039   -4.6605871578   -5.5410250491
     N     6.3983001743   -3.5843136711   -7.3466370215
     N     6.5828897615   -2.4549307270   -8.1192990180
     C     6.2958594190   -1.1916198835   -7.7181298015
     O     6.5667087872   -0.2216939259   -8.4256838465
     C     5.6359373193   -1.1027849684   -6.3996304105
     C     5.2639345984    0.1332302421   -5.9148382245
     C     4.6372841657    0.2535555314   -4.6608103773
     N     4.2864153959    1.5000145414   -4.2223866267
     H     3.2526101680   -1.0675495817    1.8030023984
     H     3.7470271265    0.6100504640    1.5063019535
     H     4.5132841814   -0.7150464804    0.6036617913
     H     1.5425983825    0.0682446373    0.3775493670
     H     2.3313085920   -1.2300111612   -0.5190459004
     H     1.7510543179    2.4107027580    0.8431861028
     H     1.6642186031    4.8555375416    0.4739125373
     H     2.5443319396    5.8766065909   -1.5955187793
     H     3.5512811211    4.4454416490   -3.3738162413
     H     4.5923261349   -3.0757619495   -3.8149263002
     H     6.5982480066   -4.4592363364   -7.8148799040
     H     7.1307834640   -2.5969846032   -8.9584250729
     H     5.4520735433    1.0273615714   -6.5010509935
