48
-1.3304229871066168e+03 frame 29   xyz file generated by TeraChem
     C     4.1214781162    0.8930655922   -2.4291346588
     O     4.1038238648    0.3256987802   -1.1347141390
     C     3.8627369741   -1.0048284351   -1.0365726419
     C     3.6111059070   -1.8416773444   -2.1180464676
     C     3.4047613351   -3.2171472145   -1.9316420661
     C     3.4504950741   -3.7451739208   -0.6411967656
     C     3.6898454291   -2.9071589077    0.4441087671
     C     3.8946981319   -1.5457581881    0.2671044592
     O     4.1896057674   -0.7724647329    1.3527802650
     C     3.1987796753    0.1840649812    1.7082290894
     C     3.1533199570   -4.0758278055   -3.0938647690
     N     2.9245502925   -3.5226588577   -4.3006856317
     N     2.7482077171   -4.5571696843   -5.1237137191
     C     2.8567269475   -5.7853239300   -4.4791728558
     C     3.1212879358   -5.4785170958   -3.1483373604
     C     2.6955291968   -6.9566311093   -5.2460425329
     C     2.4334745689   -6.8506024197   -6.5943623944
     C     2.3238335456   -5.5648020296   -7.2058449277
     C     2.4835758041   -4.4417555232   -6.4566151119
     C     2.2638473889   -8.0258264622   -7.4250258833
     N     2.0054395232   -8.0793114404   -8.6975548545
     N     1.9413725509   -9.4098855130   -9.0312939297
     C     2.1649070301  -10.0816773038   -7.9412505018
     O     2.3772089000   -9.2616747168   -6.8812378582
     C     2.2120882828  -11.5217809220   -7.7565639568
     C     1.9768033092  -12.3574178813   -8.8563535357
     C     2.0230270339  -13.7357139604   -8.6983327497
     C     2.3031330120  -14.2903548734   -7.4492847154
     C     2.5367364397  -13.4599500642   -6.3550347656
     C     2.4920696417  -12.0785101955   -6.5032632731
     H     4.3493656797    1.9506916312   -2.2885487518
     H     3.1483574736    0.7921399794   -2.9255891386
     H     4.8957428964    0.4329194896   -3.0551671882
     H     3.5836608861   -1.4487024342   -3.1277490835
     H     3.2857896808   -4.8049445219   -0.4721187084
     H     3.7268289795   -3.2993086422    1.4563447427
     H     3.5660019217    0.6811583805    2.6084861427
     H     2.2442094445   -0.3099484572    1.9295853301
     H     3.0543932148    0.9227552833    0.9142719990
     H     3.2837930705   -6.1851519787   -2.3481864826
     H     2.7802933556   -7.9228088937   -4.7611755254
     H     2.1142914088   -5.4863306182   -8.2656693172
     H     2.4185925951   -3.4287203463   -6.8334106932
     H     1.7608084952  -11.9137682237   -9.8233367989
     H     1.8402196953  -14.3811875825   -9.5527141143
     H     2.3391556174  -15.3696613407   -7.3297927850
     H     2.7551504097  -13.8889572156   -5.3812398395
     H     2.6748354645  -11.4304718406   -5.6516190366
