33
-1.0622908651331525e+03 frame 42   xyz file generated by TeraChem
     C     1.2479866260   -0.7377740647    0.5421614505
     O     2.6642104690   -0.8354560253    0.4028059049
     C     3.1501658636   -0.4307287868   -0.7846347151
     O     2.4570121150   -0.0113427665   -1.6838474726
     C     4.6083943962   -0.5766634854   -0.7936328706
     N     5.4025437429   -0.2709883940   -1.8834022118
     N     4.9513459777    0.1692775971   -3.0623876518
     C     5.8700470466    0.4008820818   -3.9656924743
     C     7.2614531978    0.2172110202   -3.7736685142
     C     7.6983692230   -0.2378299078   -2.5595518081
     C     6.7344409627   -0.4961003898   -1.5687849569
     C     6.7836804517   -0.9556387767   -0.2434766273
     C     5.4575100821   -1.0029725786    0.2240630413
     C     5.0249337963   -1.4981959567    1.5669337793
     O     4.8015416320   -2.6577260632    1.8152254969
     O     4.9387445734   -0.4983922331    2.4437270154
     C     4.5399839336   -0.8867563421    3.7597715573
     C     8.0259341713   -1.2737176406    0.4556632534
     O     9.1340334143   -1.2205277581   -0.0452633829
     O     7.8085414528   -1.6260882157    1.7303405224
     C     8.9775761607   -1.9448969891    2.4842202175
     H     1.0258827598   -1.1269476676    1.5355219602
     H     0.7455152559   -1.3340701503   -0.2234911923
     H     0.9252451817    0.3031442361    0.4566857997
     H     5.4802752776    0.7576880491   -4.9145302404
     H     7.9510311511    0.4353098931   -4.5816153825
     H     8.7415938888   -0.4098409132   -2.3228008994
     H     4.5302840380    0.0319204422    4.3456974169
     H     5.2525183418   -1.6022531413    4.1778806061
     H     3.5452864177   -1.3394244349    3.7383764818
     H     8.6221478565   -2.1863505305    3.4856639964
     H     9.6595539862   -1.0914312844    2.5136252600
     H     9.4931901561   -2.8027696228    2.0451993358
