33
-9.8813475146262795e+02 frame 35   xyz file generated by TeraChem
     C     1.1095411342    0.6606852588   -0.3303431729
     O     2.5290280916    0.7566421574   -0.2523398164
     C     3.0379455438    0.7463895059    0.9931126647
     O     2.3234069761    0.6667235109    1.9757876010
     C     4.5001277867    0.8313813305    0.9501742908
     C     5.2219902346    0.8577408715   -0.2587492315
     C     6.5674417411    0.9197738253    0.0166135530
     N     6.6955320652    0.9358970455    1.3965201319
     C     5.4445731314    0.8831989239    1.9994735592
     C     5.4129900747    0.9031679613    3.4385939314
     C     4.2412856729    0.8654526073    4.2182424178
     C     4.3264570333    0.8945063050    5.5980414194
     C     5.5664757577    0.9600122071    6.2521301279
     C     6.7271941472    0.9967085184    5.5067140781
     C     6.6635418862    0.9698084509    4.1036060129
     C     7.8533693929    1.0130140492    3.3128291119
     N     7.8896677394    0.9994847744    2.0199788043
     C     7.6078483845    0.9471673189   -1.0175710916
     O     7.3214918913    0.9432092125   -2.1996697082
     O     8.8627521717    0.9698650559   -0.5625177330
     C     9.8647734711    0.9847842164   -1.5793302089
     H     0.8732835819    0.6850428687   -1.3942385536
     H     0.6365639889    1.5010415308    0.1846897042
     H     0.7598128103   -0.2739814300    0.1162942294
     H     4.8031564745    0.8278346335   -1.2531609383
     H     3.2810189627    0.8107558756    3.7200973669
     H     3.4119779986    0.8650986025    6.1841332055
     H     5.6104646590    0.9812921100    7.3371533642
     H     7.7000514576    1.0473580579    5.9892711165
     H     8.8251079958    1.0642640284    3.7988074053
     H    10.8163185666    0.9981435539   -1.0481557202
     H     9.7630250263    1.8740938786   -2.2066169625
     H     9.7881940161    0.0936831319   -2.2075614270
