125
-3.4874332267188038e+03 frame 72   xyz file generated by TeraChem
     N     8.4332020890   17.0509590390    3.0650447001
     C     8.9589277738   16.0430904954    2.8064045010
     C     9.6516097571   14.8366346892    2.5383730628
     C     9.1990540254   13.8726132339    1.6747583409
     C     8.0208593102   13.8369573096    0.8893846606
     C     6.9804776953   14.7500690292    0.7368403707
     C     5.9913530969   14.3228873187   -0.1506486639
     C     6.2433868892   13.0691644241   -0.7037461700
     S     7.7317840714   12.4287676959   -0.1060446188
     C     5.4361691504   12.3379964115   -1.6395997466
     C     5.6590280696   11.0875490090   -2.1846515525
     C     4.6495511584   10.6769897186   -3.0757220584
     C     3.6384229473   11.6052953045   -3.2316029423
     S     3.9442161681   13.0009041082   -2.2438541149
     C     2.4449596455   11.5207602114   -4.0665750714
     C     1.9444858886   10.2610115827   -4.4470427312
     C     0.8094439999   10.1456948735   -5.2392869627
     C     0.1540627562   11.3040719570   -5.6595829261
     C     0.6441796641   12.5695967376   -5.2878725977
     C     1.7755318203   12.6814649108   -4.5011809622
     C    -0.2170630224   13.6792045822   -5.8668473981
     C     0.5919415660   14.5874155022   -6.8215996483
     C     1.2742059956   13.8731752965   -7.9811004993
     C    -0.8284340281   14.5627526776   -4.7554582468
     C    -1.6829280659   13.8276501998   -3.7308225433
     C    -1.2725356485   12.8761659086   -6.6095655066
     C    -1.0390386499   11.4949645413   -6.4754940482
     C    -1.8992411638   10.5781244575   -7.0793748724
     C    -2.9794907438   11.0455325167   -7.8159492716
     C    -3.2233427722   12.4245047591   -7.9473247534
     C    -2.3569273907   13.3448868792   -7.3311314381
     N    -4.3316545445   12.8727434705   -8.6912736406
     C    -4.2429854899   14.0155758552   -9.5144182976
     C    -5.3417295918   14.8849747943   -9.6218269304
     C    -5.2874542638   16.0047324589  -10.4434129570
     C    -4.1188741458   16.2732508164  -11.1542175248
     C    -3.0131912026   15.4129266908  -11.0427658133
     C    -3.0695706267   14.2866561917  -10.2386515059
     C    -1.8605734441   15.8945630023  -11.9090781436
     C    -1.4788833888   14.8533161502  -12.9852805246
     C    -2.6092597608   14.4173989533  -13.9078466962
     C    -0.6009404259   16.2074021219  -11.0697761036
     C    -0.7997358608   17.2101696500   -9.9404038870
     C    -2.4564337992   17.1503309365  -12.5239024469
     C    -3.7736806847   17.3560835952  -12.0747599430
     C    -4.5138428646   18.4524415304  -12.5156008130
     C    -3.9227507974   19.3448862217  -13.4093716552
     C    -2.6143154380   19.1438159884  -13.8548615208
     C    -1.8741791866   18.0426198306  -13.4139302060
     C    -5.5385050090   12.1306384682   -8.6588124604
     C    -6.0868474106   11.7417425720   -7.4276474518
     C    -7.2591631762   10.9956121111   -7.3757392052
     C    -7.8951350145   10.6460210912   -8.5665455656
     C    -7.3515371068   11.0403305866   -9.8018560979
     C    -6.1792387400   11.7757622395   -9.8555951775
     C    -8.1962561498   10.5297461926  -10.9564127232
     C    -7.3944370514    9.5755725329  -11.8721468139
     C    -6.7562896604    8.3815773971  -11.1735508735
     C    -8.7458477240   11.6852979055  -11.8235377329
     C    -9.5644046051   12.7315548058  -11.0782276116
     C    -9.3027401288    9.8004411794  -10.2141768854
     C    -9.1140467642    9.8776826966   -8.8224489047
     C   -10.0150725823    9.2733335429   -7.9464198161
     C   -11.1095869934    8.5909860003   -8.4761640638
     C   -11.2988820368    8.5132491607   -9.8579827297
     C   -10.3938133585    9.1178347253  -10.7349892360
     C    10.9438681822   14.5896913387    3.2330735740
     O    11.6032545475   13.5875252151    3.0551801764
     O    11.3772371635   15.5257681172    4.0878605715
     H     9.8660897797   13.0145571105    1.6009933801
     H     6.9416687731   15.7004196554    1.2559962601
     H     5.1083494277   14.9065972848   -0.3893931100
     H     6.5337659396   10.4869553651   -1.9539256761
     H     4.6742803286    9.7348988150   -3.6123559190
     H     2.4419898809    9.3616707007   -4.0955599648
     H     0.4375541066    9.1616352426   -5.5134064474
     H     2.1628291322   13.6639725867   -4.2368862668
     H     1.3428436879   15.1183767863   -6.2213341882
     H    -0.0894575314   15.3558605595   -7.2110570380
     H     1.9970125527   13.1310617749   -7.6246870559
     H     1.8134599431   14.5916148884   -8.6080886783
     H     0.5460242730   13.3557180892   -8.6155405140
     H    -1.4237352606   15.3490840540   -5.2386507512
     H     0.0002293949   15.0737372923   -4.2473558413
     H    -2.5565805799   13.3619299818   -4.1996458935
     H    -2.0442785218   14.5233568759   -2.9660254592
     H    -1.1112977093   13.0411733492   -3.2260253328
     H    -1.7273173452    9.5079556625   -6.9936900325
     H    -3.6458031742   10.3415342018   -8.3050678549
     H    -2.5511250332   14.4102685035   -7.4245325866
     H    -6.2414263197   14.6748923327   -9.0508161214
     H    -6.1489537472   16.6646222908  -10.5126300582
     H    -2.2227789891   13.6092807270  -10.1638521557
     H    -1.0629017337   13.9767283099  -12.4701919930
     H    -0.6584651034   15.2738168705  -13.5828283598
     H    -3.4264558203   13.9496513714  -13.3476319974
     H    -2.2450289599   13.6874619388  -14.6389016565
     H    -3.0237103660   15.2672611847  -14.4611176875
     H     0.1759377296   16.5715125515  -11.7554845332
     H    -0.2263876147   15.2597706058  -10.6589814572
     H    -1.1337104086   18.1816755390  -10.3210776051
     H     0.1392473765   17.3677931437   -9.3983414052
     H    -1.5467684379   16.8564281816   -9.2212509631
     H    -5.5329718903   18.6124444572  -12.1713208938
     H    -4.4854406683   20.2054004033  -13.7623127031
     H    -2.1677658346   19.8496879049  -14.5505046412
     H    -0.8557150115   17.8932863346  -13.7667385248
     H    -5.5819891392   12.0318661665   -6.5105431695
     H    -7.6726285307   10.7034516489   -6.4134744336
     H    -5.7416998985   12.0720103357  -10.8060155859
     H    -6.6172239226   10.1669068797  -12.3746640485
     H    -8.0716357887    9.2231119106  -12.6617315624
     H    -6.0348725706    8.7034842844  -10.4146271349
     H    -6.2242117320    7.7549009084  -11.8974168462
     H    -7.5091518440    7.7576820400  -10.6796190819
     H    -9.3536482091   11.2424670845  -12.6241471523
     H    -7.8921541788   12.1682669954  -12.3176807029
     H   -10.4454606556   12.2854268271  -10.6042902962
     H    -9.9116083535   13.5075389942  -11.7688442851
     H    -8.9717441489   13.2197702042  -10.2966085097
     H    -9.8708186279    9.3302498762   -6.8700477770
     H   -11.8222617624    8.1150825484   -7.8074620777
     H   -12.1575351679    7.9776555702  -10.2546448948
     H   -10.5482584292    9.0526620914  -11.8101008220
     H    10.7675362050   16.2814051655    4.1483664909
