60
-1.8868603236187701e+03 frame 168   xyz file generated by TeraChem
     F    -0.2027144665    0.8707570126    1.2921504341
     C     0.7310707112    0.8915510706    0.3364397927
     S     2.0370921438   -0.3591168660    0.6829541455
     O     1.3032766865   -1.6326901172    0.6547033193
     O     2.9886715327   -0.1666969243   -0.4349660311
     O     2.5504542145    0.0494987215    2.0005955623
     F     0.1326664099    0.6554723631   -0.8327581899
     F     1.2485268670    2.1285771022    0.2944540137
     C     8.8635001913    6.9810050866   -0.9006941028
     C     8.1004243920    5.8799301501   -1.6294560566
     C     8.5300405181    4.4620724346   -1.2500707450
     C     8.1939552220    4.0385755249    0.1783037978
     N     6.7420208043    3.8897033308    0.4127661258
     C     6.1063067796    4.9236391542    1.0215019336
     C     4.7631743472    4.8979672379    1.2866760300
     C     4.0364776633    3.7624176900    0.9049477313
     C     4.6800599685    2.7179603454    0.2812426967
     C     6.0666785260    2.7571513463    0.0248572966
     C     6.7779683150    1.6793942948   -0.6078309917
     C     6.2277988227    0.4575740110   -0.8609377406
     C     6.8752533996   -0.6583110409   -1.4926239839
     C     6.1709203280   -1.8729735052   -1.6123490339
     C     6.7267416576   -2.9929096215   -2.1961330522
     C     8.0439631350   -2.9658590905   -2.7256340186
     C     8.7590543883   -1.7411448635   -2.5956933473
     C     8.1905878346   -0.6359778637   -2.0047314397
     N     8.5907298318   -4.0587267248   -3.3353390455
     C     7.8398737982   -5.3170200884   -3.3099023224
     C     8.4592943292   -6.4648965764   -4.0868097628
     C     9.9903267968   -4.0557692348   -3.7393595475
     C    10.9653557384   -4.3001160104   -2.5918181436
     H     8.5454484812    7.9697448037   -1.2480345094
     H     9.9417554210    6.8934808163   -1.0799618584
     H     8.7060996166    6.9518734442    0.1840382016
     H     8.2534073382    5.9954959468   -2.7094399943
     H     7.0200012580    6.0014308683   -1.4700290901
     H     9.6191473414    4.3701596700   -1.3546192332
     H     8.0898295284    3.7468119414   -1.9545627815
     H     8.5503213721    4.7764120575    0.8995966830
     H     8.6717859527    3.0919860409    0.4383527587
     H     6.7336823091    5.7643594929    1.2910317465
     H     4.2974669099    5.7437309596    1.7786511448
     H     2.9700635379    3.7014124805    1.0944563951
     H     4.1140732755    1.8466840359   -0.0316901131
     H     7.8098461182    1.8489074120   -0.8873360575
     H     5.1987613738    0.2624350175   -0.5601564482
     H     5.1554531279   -1.9286559592   -1.2258633709
     H     6.1323532715   -3.8967365992   -2.2404633048
     H     9.7764222242   -1.6600191098   -2.9585662432
     H     8.7861587023    0.2705832350   -1.9375358028
     H     6.8451048734   -5.1241070600   -3.7289148558
     H     7.6860625354   -5.6284696635   -2.2658962843
     H     8.5760199833   -6.2271713469   -5.1491696160
     H     7.7833006439   -7.3226073861   -4.0113404315
     H     9.4294707609   -6.7733122162   -3.6850210630
     H    10.2086073006   -3.1060839937   -4.2371485269
     H    10.1212964530   -4.8201289273   -4.5065573493
     H    10.8700897853   -3.5320965386   -1.8170971318
     H    11.9959700500   -4.2842894805   -2.9632012937
     H    10.7850635989   -5.2757917357   -2.1274873450
