46
-1.2507339737868051e+03 frame 24   xyz file generated by TeraChem
     F     2.1551709894    1.3554877972    2.8255654755
     C     3.2793547613    1.1528294765    2.1118845275
     C     4.3113887042    0.4564472184    2.6777298229
     C     5.4721803660    0.2688767255    1.9056248296
     C     5.5837580806    0.7741532520    0.5932965768
     C     4.5028262987    1.4955151466    0.0152729139
     C     3.3184433530    1.6879946527    0.7996684906
     C     2.2186829154    2.3997189401    0.2638885086
     C     2.2762137028    2.9126609126   -1.0098192821
     C     3.4374063269    2.7305441536   -1.7914319032
     C     4.5187614329    2.0419165308   -1.2932858856
     C     6.9120170128    0.4059695332    0.0799308850
     C     7.5470271610   -0.3128600545    1.1223998385
     C     6.7114918604   -0.4225137252    2.2521417249
     C     7.1944069452   -1.1013062792    3.3547378706
     C     8.4919022588   -1.6521807829    3.3093264845
     C     9.3261096475   -1.5464667105    2.1934174196
     C     8.8310889261   -0.8481840912    1.0535194063
     C     9.5650031826   -0.6628135531   -0.1528444110
     C     8.9437386866    0.0431689817   -1.1835877906
     C     7.6406477455    0.5757013472   -1.0864381206
     C    10.9153239946   -1.2259780149   -0.2253046526
     C    11.4348848111   -1.9323748579    0.9082358007
     C    10.6788581773   -2.1066626691    2.1137379108
     C    11.2521253616   -2.8017796315    3.1707561544
     C    12.5467357730   -3.3383665173    3.0893030497
     C    13.2862425694   -3.1831047738    1.9415683843
     C    12.7522586118   -2.4816643522    0.8336771612
     C    13.5170057770   -2.3212613096   -0.3471251847
     C    13.0011073385   -1.6394109471   -1.4230138754
     C    11.7081421369   -1.0966911449   -1.3580007423
     H     4.2234042733    0.0697145011    3.6883519225
     H     1.3316874971    2.5327886214    0.8749473030
     H     1.4294663859    3.4582855677   -1.4166932070
     H     3.4776130709    3.1388522038   -2.7977142725
     H     5.3980763671    1.9149552530   -1.9135976064
     H     6.6007276398   -1.2231149665    4.2574583884
     H     8.8385018292   -2.1786017396    4.1926315962
     H     9.4696336655    0.2036288458   -2.1195007058
     H     7.2516464288    1.1083347542   -1.9480290719
     H    10.6966157757   -2.9425596461    4.0923958805
     H    12.9561294176   -3.8756833033    3.9400731246
     H    14.2898325869   -3.5941335810    1.8649298791
     H    14.5165628563   -2.7474000179   -0.3834446433
     H    13.5872991440   -1.5150197739   -2.3291239820
     H    11.3308563515   -0.5640621729   -2.2248558214
