46
-1.3331731747045319e+03 frame 51   xyz file generated by TeraChem
     C     1.2328760048    0.0455751065    0.3300672114
     O     2.6606977159   -0.0533773203    0.2878832380
     C     3.2003234653   -0.9323321472    1.1310423406
     O     2.5637356340   -1.6892201165    1.8325106262
     C     4.6923176482   -0.9322028454    1.0372827322
     C     5.3131251628   -2.1452012952    0.8699435427
     C     6.7159763306   -2.2154420427    0.6829620336
     N     7.3088220656   -3.4130220247    0.5114495788
     C     8.6201771516   -3.4317418093    0.3381314808
     C     9.3899377099   -2.2162932801    0.3322437167
     N     8.8129481729   -1.0381164616    0.4975081713
     C     7.4772452696   -1.0127133323    0.6720348025
     C     6.8212311799    0.2269798006    0.8673963807
     C     5.4601594807    0.2737401379    1.0564907313
     C     4.8154117820    1.5585975046    1.4511168767
     O     3.8891443604    1.6296176016    2.2331306664
     O     5.4032684294    2.6130800199    0.8893835223
     C     4.9055966749    3.8924572327    1.3000152786
     C    10.8354141914   -2.2727107149    0.1453079369
     C    11.5841586236   -1.0847445997    0.1467388649
     C    12.9558127728   -1.1131546065   -0.0234002291
     C    13.6015172632   -2.3419947759   -0.1970421351
     C    12.8743927282   -3.5207581538   -0.2007742746
     C    11.4777700254   -3.5197617113   -0.0320893237
     C    10.6913677609   -4.7599497908   -0.0355218808
     C     9.2896214351   -4.7136781920    0.1492418497
     C     8.5372148248   -5.8995249342    0.1499181765
     C     9.1490184221   -7.1258825622   -0.0310920154
     C    10.5343937207   -7.1820619369   -0.2177933903
     C    11.2881123172   -6.0201855712   -0.2194123379
     H     0.9712040408    0.8099761544   -0.4005235842
     H     0.9060043601    0.3422121654    1.3296284096
     H     0.7778469022   -0.9111452445    0.0633029821
     H     4.7391679279   -3.0668480062    0.8527819978
     H     7.4221470941    1.1300519802    0.8973581498
     H     5.4953412994    4.6246153260    0.7501057936
     H     5.0379266535    4.0228340624    2.3767046658
     H     3.8468615544    3.9839484054    1.0469983827
     H    11.0600666243   -0.1450027301    0.2857575665
     H    13.5260161507   -0.1886086545   -0.0203881986
     H    14.6793139303   -2.3777515315   -0.3300561653
     H    13.4085744415   -4.4545810275   -0.3356200298
     H     7.4644329704   -5.8302307567    0.2961196587
     H     8.5579198310   -8.0372077351   -0.0292582965
     H    11.0266868931   -8.1397957270   -0.3626564880
     H    12.3587871935   -6.1013504365   -0.3686352641
