61
-1.3710565597084701e+03 frame 168   xyz file generated by TeraChem
     C     0.0013026803    0.5774258187   -3.5410308683
     N     1.3933518610    0.6851760569   -3.1006211952
     C     1.7020631463    1.4374937759   -2.0174854824
     C     3.0053063637    1.5281431211   -1.6039949827
     C     3.9936441311    0.8215453312   -2.3178180713
     N     3.6411604450    0.0687225887   -3.3915515720
     C     2.3863754041    0.0252377200   -3.7382626467
     C     5.3756288745    0.8846071450   -1.9251222705
     C     6.3504309088    0.2028123672   -2.5774713556
     C     7.7630205861    0.1889230598   -2.2696032753
     C     8.3408599877    0.9337687330   -1.2233306952
     C     9.7000111555    0.8743649859   -0.9780843574
     C    10.5526257052    0.0696548570   -1.7593074850
     C     9.9751767940   -0.6717431645   -2.8036932830
     C     8.6142978651   -0.6111217928   -3.0533495727
     C    11.9990972750    0.0101917241   -1.4898646622
     C    12.5101824091    0.1873244509   -0.1943179702
     C    13.8708476525    0.1338320667    0.0648841593
     C    14.7872564413   -0.1076479254   -0.9709302639
     C    14.2864926845   -0.2896966316   -2.2697665590
     C    12.9246659859   -0.2275939376   -2.5183133212
     N    16.1659388998   -0.1647307224   -0.7188304593
     C    16.6586578081   -0.6698096135    0.5087648722
     C    16.1024759452   -1.8207896953    1.0810438461
     C    16.5997994704   -2.3139126988    2.2829955665
     C    17.6666794656   -1.6822254515    2.9206807730
     C    18.2267025780   -0.5416923446    2.3470864415
     C    17.7237320286   -0.0304841700    1.1549216598
     C    17.0909882374    0.2660601963   -1.7033705427
     C    16.8958268579    1.4761900295   -2.3793259102
     C    17.8056201681    1.8897348183   -3.3472480443
     C    18.9278317564    1.1156492963   -3.6399727866
     C    19.1285848782   -0.0839123373   -2.9585594996
     C    18.2145330369   -0.5136017480   -2.0018560850
     I    -0.7732663555   -0.1211664507    0.3188647550
     H    -0.3550818847    1.5636195853   -3.8452858558
     H    -0.5930085314    0.2041934363   -2.7010298077
     H    -0.0515502922   -0.1130749210   -4.3821199421
     H     0.8771165593    1.9361899237   -1.5225811642
     H     3.2578307938    2.1311237670   -0.7392501674
     H     2.0877339955   -0.5738821390   -4.5937131239
     H     5.5967732458    1.5097406449   -1.0644537088
     H     6.0456422791   -0.4083420895   -3.4259145481
     H     7.7227787898    1.5772438813   -0.6038275277
     H    10.1173749312    1.4827673909   -0.1809295147
     H    10.5961911835   -1.3239719645   -3.4107450478
     H     8.1897006477   -1.2006824196   -3.8625984875
     H    11.8310028694    0.3567626092    0.6367966016
     H    14.2297732412    0.2771451307    1.0792522131
     H    14.9724925742   -0.4794278941   -3.0893385374
     H    12.5783044556   -0.3548716972   -3.5403535698
     H    15.2835865904   -2.3263420676    0.5774897990
     H    16.1587187333   -3.2089007962    2.7140320470
     H    18.0579126437   -2.0751944676    3.8548636272
     H    19.0545704626   -0.0351264210    2.8363498324
     H    18.1533331685    0.8660336772    0.7173625447
     H    16.0300556286    2.0873867975   -2.1408814219
     H    17.6425164719    2.8315042098   -3.8647450091
     H    19.6400026559    1.4451393386   -4.3913200823
     H    19.9964345128   -0.6993426856   -3.1807978296
     H    18.3645574687   -1.4547119353   -1.4806045720
