118
-2.9359437297066561e+03 frame 119   xyz file generated by TeraChem
     N     6.6526044901   -4.0032896832    0.6403048730
     C     6.2718706993   -2.9667402037    0.2660338052
     C     5.8748562246   -1.6722195793   -0.1525738150
     C     4.7315900754   -1.4232217958   -0.8653493485
     C     3.7279489302   -2.2924676646   -1.3514076213
     C     2.6093656775   -1.8595037452   -2.0582290802
     C     1.7491814768   -2.8928768022   -2.4388913512
     C     2.1875848427   -4.1473654114   -2.0341268219
     S     3.6910260933   -4.0288080285   -1.1791377601
     C     1.5483783181   -5.4363333119   -2.2570642183
     C     0.5823799195   -5.5712908626   -3.2736900290
     C    -0.0465385616   -6.7850691383   -3.5133509028
     C     0.2912258134   -7.8910557807   -2.7311506835
     C     1.2596571563   -7.7721873943   -1.7144616398
     C     1.8811560795   -6.5621566348   -1.4760514825
     C     1.4618628962   -9.0969430476   -0.9988021914
     C     1.1124625793   -8.9985464649    0.5037886329
     C    -0.2967506714   -8.5159283069    0.8211630970
     C     2.9161163152   -9.6059280614   -1.1299186590
     C     3.4253634769   -9.7611077808   -2.5568942452
     C     0.4820251969   -9.9859275861   -1.7461171494
     C    -0.1901200868   -9.2652772740   -2.7497885212
     C    -1.1349396867   -9.9044234124   -3.5541105734
     C    -1.4033379143  -11.2504227181   -3.3479830855
     C    -0.7251166709  -11.9800598685   -2.3524851509
     C     0.2300617942  -11.3318505412   -1.5487955917
     N    -1.0021247095  -13.3441886134   -2.1644661330
     C    -1.3358766869  -14.1695302261   -3.2650699044
     C    -0.5914200137  -14.1023353690   -4.4527557326
     C    -0.9046349915  -14.9182967635   -5.5347974241
     C    -1.9613290913  -15.8215144147   -5.4238896346
     C    -2.7075395715  -15.8915673645   -4.2345080307
     C    -2.4079931400  -15.0689714753   -3.1620266653
     C    -3.8096442403  -16.9312098222   -4.3409084624
     C    -5.2117752308  -16.2965084170   -4.1891651291
     C    -5.5245989715  -15.1656076118   -5.1603727971
     C    -3.6560572317  -18.0360408156   -3.2718436531
     C    -2.3210567412  -18.7693005503   -3.2735269589
     C    -3.5825641948  -17.4583114231   -5.7473946175
     C    -2.5054590724  -16.7993502205   -6.3675777589
     C    -2.1255233922  -17.1249039321   -7.6692771924
     C    -2.8317285728  -18.1193707061   -8.3452338489
     C    -3.9008686386  -18.7754557348   -7.7307210217
     C    -4.2825617785  -18.4462351792   -6.4269598043
     C    -0.9666290495  -13.9161258979   -0.8700620331
     C    -0.3529620038  -15.1636693681   -0.6769957374
     C    -0.3313196823  -15.7590607418    0.5791558495
     C    -0.9150643495  -15.0952149280    1.6569612230
     C    -1.5229190767  -13.8409827870    1.4701891454
     C    -1.5576771038  -13.2523612951    0.2165861445
     C    -2.1081033491  -13.3212502352    2.7730324328
     C    -3.6386024375  -13.1219765695    2.6807337016
     C    -4.4308798129  -14.3416807896    2.2280553000
     C    -1.4683119919  -11.9797880616    3.1989887957
     C     0.0478009186  -11.9940935927    3.3422543913
     C    -1.7458586481  -14.4451940082    3.7289886647
     C    -1.0486975775  -15.4702998317    3.0649030539
     C    -0.6180334473  -16.6026533457    3.7554883924
     C    -0.8910793940  -16.6998933321    5.1194373726
     C    -1.5840842731  -15.6832511763    5.7807517368
     C    -2.0161390368  -14.5494076890    5.0868445813
     C     6.7379879608   -0.5138954034    0.2018702046
     O     6.4579991679    0.6279096494   -0.0950517499
     O     7.8669325232   -0.7658518203    0.8777685838
     H     4.5737106240   -0.3708136243   -1.0981276879
     H     2.4365495125   -0.8092393706   -2.2712159458
     H     0.8188177902   -2.7343228969   -2.9718370660
     H     0.3374679591   -4.7169000591   -3.8974894930
     H    -0.7838761747   -6.8655944430   -4.3078867626
     H     2.6115770255   -6.4727719728   -0.6739755912
     H     1.8465364050   -8.3319596136    0.9759014853
     H     1.2681033821   -9.9910170755    0.9475336100
     H    -0.4789697639   -7.5110568128    0.4240553581
     H    -0.4500999268   -8.4779119219    1.9052970754
     H    -1.0545301999   -9.1866128174    0.4009974537
     H     2.9793944640  -10.5688051504   -0.6060992884
     H     3.5644984735   -8.9120255871   -0.5783813484
     H     2.8271799444  -10.4875738564   -3.1177272701
     H     4.4631771291  -10.1111761467   -2.5565820606
     H     3.3934688635   -8.8085287234   -3.0965799129
     H    -1.6718942110   -9.3594281960   -4.3266175534
     H    -2.1491195328  -11.7526422918   -3.9562125071
     H     0.7615942938  -11.8953418224   -0.7865143554
     H     0.2412109819  -13.4076652220   -4.5168434862
     H    -0.3135575590  -14.8567306781   -6.4454216127
     H    -2.9867165977  -15.1103261934   -2.2423307643
     H    -5.3048339285  -15.9320491368   -3.1572253395
     H    -5.9552136359  -17.0973165768   -4.3003241082
     H    -4.8312567265  -14.3271685049   -5.0319813055
     H    -6.5396585594  -14.7885187324   -4.9947622181
     H    -5.4577686415  -15.5016876993   -6.2008674132
     H    -4.4739506182  -18.7561317318   -3.4105897409
     H    -3.8194200890  -17.5735510626   -2.2889975616
     H    -2.1393434756  -19.2685893342   -4.2315190954
     H    -2.3048988116  -19.5332518220   -2.4887268603
     H    -1.4881737996  -18.0821174647   -3.0875354140
     H    -1.2940975497  -16.6163880035   -8.1517346041
     H    -2.5475984061  -18.3864581434   -9.3598918196
     H    -4.4405176523  -19.5487144528   -8.2714419397
     H    -5.1174617497  -18.9607180152   -5.9557760370
     H     0.1076562368  -15.6633948791   -1.5243606081
     H     0.1480974783  -16.7261359305    0.7101750045
     H    -2.0446724348  -12.2930729242    0.0596998716
     H    -3.8299162006  -12.2831732889    1.9976673198
     H    -3.9910451877  -12.7978533258    3.6690641536
     H    -4.1489588111  -14.6457962186    1.2141732178
     H    -5.5037599362  -14.1207932129    2.2246842282
     H    -4.2664830012  -15.1955904018    2.8944166093
     H    -1.9253776911  -11.6804056323    4.1518529228
     H    -1.7639840909  -11.2175160845    2.4651908790
     H     0.3711865561  -12.7138401799    4.1020857982
     H     0.4130965480  -11.0053572513    3.6409261081
     H     0.5365438309  -12.2593899938    2.3979624758
     H    -0.0785518605  -17.3970170188    3.2448736433
     H    -0.5620735531  -17.5754686354    5.6732261966
     H    -1.7889242632  -15.7747229291    6.8443183348
     H    -2.5556151319  -13.7624195722    5.6100118364
     H     7.9919302634   -1.7164022605    1.0432699750
