22
-8.8850307154305233e+02 frame 46   xyz file generated by TeraChem
     N     1.7102858089    1.3504695017   -1.4971802868
     C     2.8230735421    0.9137799239   -0.8416274848
     C     3.8255953645    1.8327452012   -0.4426703116
     C     4.9725303451    1.3986716821    0.1785040958
     C     5.1924439076    0.0291348103    0.4385282261
     C     4.1854354066   -0.8688644886    0.0318575307
     C     3.0232135187   -0.4516677710   -0.5925972949
     O     4.3092707399   -2.2093721584    0.2407008129
     C     5.4029006810   -2.7774714348    0.8518834832
     O     5.4055003680   -3.9824784459    0.9829837672
     C     6.4476292451   -1.8735517949    1.2803995328
     C     6.3422066763   -0.5370898776    1.0808312624
     C     7.4563958294    0.3676195788    1.5412520560
     F     7.0076905636    1.2805102159    2.4212462510
     F     8.4522600263   -0.2999037393    2.1356838768
     F     7.9908553205    1.0392112261    0.5059144580
     H     1.4742998623    2.3301217562   -1.4240180467
     H     0.9127446421    0.7317917941   -1.5413708746
     H     3.6778598254    2.8921287221   -0.6332649785
     H     5.7173266614    2.1296621629    0.4725017687
     H     2.2795200786   -1.1880008139   -0.8821186238
     H     7.3062995020   -2.3221169650    1.7632699218
