49
-1.2446398617606478e+03 frame 75   xyz file generated by TeraChem
     N     0.8796345981   -0.0396901910    0.4956868375
     C     2.0181295784   -0.0076869096    0.2623530686
     C     3.4177165789    0.0367794297   -0.0246468106
     C     4.0301704509    1.2698507910   -0.1035520294
     C     5.4185658082    1.3354941236   -0.4033926968
     C     6.1935132745    2.5598093841   -0.3974312614
     C     5.7789895140    3.7469798554    0.1257391730
     C     6.5605901867    4.9631424511    0.1713194669
     C     6.1334279310    5.9841691702    0.9837122802
     C     6.0536230270    0.1444212220   -0.6766094997
     C     5.5500320273   -1.1319450166   -0.4321712000
     C     4.1369288041   -1.1935187598   -0.1918393594
     C     3.4831135170   -2.4498509867   -0.1672178892
     C     4.2015704824   -3.6004062046   -0.3230661627
     C     5.6131418120   -3.5833235122   -0.4968854796
     C     6.3116982164   -2.3562346685   -0.5289551109
     C     7.7508855888   -2.3757785348   -0.6457537663
     C     8.5518455494   -1.2143694253   -0.5696330429
     C     9.9182940926   -1.2625792681   -0.7518655058
     C    10.5589832344   -2.4942337346   -0.9748443387
     C     9.8155084395   -3.6545323394   -1.0028835019
     C     8.4140329361   -3.6260283803   -0.8342728880
     C     7.6605235367   -4.8374684515   -0.8388391515
     C     6.3134796522   -4.8175287505   -0.6551173134
     C     6.9538068161    7.0284351083    1.4333794000
     C     6.5795022225    7.9723640929    2.4218175907
     C     7.4220417555    9.0114377106    2.7517678847
     C     8.6459313571    9.1756392378    2.0723854342
     C     9.0277978386    8.2870398326    1.0864669048
     C     8.2187013965    7.1788652925    0.7629945214
     C     8.5950693890    6.2209221587   -0.2295545604
     C     7.8028741574    5.1503756569   -0.5299229975
     H     3.4563892941    2.1733785749    0.0886346007
     H     7.1969382330    2.4644498224   -0.8052715184
     H     4.8041014243    3.8175248046    0.6026923104
     H     2.4050585337   -2.4885977069   -0.0351251094
     H     3.6967131577   -4.5629697908   -0.3136153763
     H     8.0616083452   -0.2580579590   -0.3698321787
     H    10.5030844489   -0.3486230477   -0.6950803297
     H    11.6376526301   -2.5310258601   -1.1009953374
     H    10.2993689748   -4.6169304637   -1.1519009814
     H     8.1889089867   -5.7775434894   -0.9770915085
     H     5.7402531238   -5.7408717255   -0.6370580410
     H     5.6250295513    7.8437830091    2.9242693769
     H     7.1359505914    9.7197048795    3.5242071094
     H     9.2887837112   10.0159654745    2.3198353237
     H     9.9615643044    8.4303978136    0.5469987293
     H     9.5548439017    6.3458967351   -0.7253056084
     H     8.1276710343    4.4105979619   -1.2590490130
