34
-8.7712350436359634e+02 frame 35   xyz file generated by TeraChem
     N     4.8430836539   -1.6150350904   -0.1532599691
     C     4.1628627915   -0.5088623219   -0.8202435343
     C     4.8113530220    0.8189437298   -0.4673904207
     N     4.5903329749    1.1276244058    0.9296775341
     C     5.1810584081    2.1335327219    1.6065001764
     C     6.1410054587    2.9624298478    0.9682156128
     C     6.7709254346    3.9806088564    1.6506212646
     C     6.4773814396    4.2356904763    2.9946226783
     C     5.5354404336    3.4560268379    3.6447571963
     C     4.8657486704    2.3966924975    2.9793862031
     C     3.8749546321    1.5951835414    3.6890807670
     O     3.2603107936    0.6596271382    3.1544624581
     C     3.5925383810    1.9111774526    5.1153208150
     C     4.2553056086    2.9526184196    5.7813384804
     C     5.2551461978    3.7787960263    5.0703928443
     O     5.8307991100    4.7009499604    5.6372049879
     C     3.9696906730    3.2190009310    7.1219274772
     C     3.0280210350    2.4542668560    7.7992791030
     C     2.3655338423    1.4180238597    7.1371648328
     C     2.6466642075    1.1479034972    5.8027825374
     H     4.3946553291   -2.4873609132   -0.4238131911
     H     4.6954796663   -1.5400829581    0.8513272477
     H     3.0826740788   -0.4457119071   -0.5995257973
     H     4.2565840985   -0.6483278038   -1.9026764280
     H     4.4038678968    1.6122166080   -1.1117284395
     H     5.8877274192    0.7459272897   -0.6667206485
     H     3.8562918461    0.6432717953    1.4406389995
     H     6.3772432510    2.7923952077   -0.0762285669
     H     7.5019161766    4.5944747095    1.1311397219
     H     6.9667437149    5.0350994713    3.5397204521
     H     4.4962252429    4.0301594983    7.6151589782
     H     2.8074441533    2.6626671705    8.8423960688
     H     1.6284838325    0.8200969895    7.6660273084
     H     2.1420361124    0.3456749246    5.2742641741
