22
-5.9105105509459963e+02 frame 17   xyz file generated by TeraChem
     N     0.9602835431    0.0103756105   -0.1764724156
     C     2.3246426491    0.0075950854   -0.0389216590
     C     3.0425539847    1.2264645843   -0.0065920172
     C     4.4177781711    1.2269014098    0.0772171523
     C     5.1545059908    0.0281815931    0.1322949656
     C     4.4216491319   -1.1719180129    0.0991248530
     C     3.0379218786   -1.1970378625    0.0161270528
     O     5.0448363005   -2.3808876870    0.1524789740
     C     6.4170387553   -2.5012516098    0.2405192367
     O     6.8648745273   -3.6308540269    0.2783633169
     C     7.1757989528   -1.2773641200    0.2763586874
     C     6.5898476591   -0.0494840875    0.2252157339
     C     7.4119432236    1.2005514858    0.2654784687
     H     0.4784333450    0.8564939147    0.0952071853
     H     0.4719030872   -0.8320607217    0.0952509138
     H     2.4958477279    2.1648243807   -0.0485109105
     H     4.9460726859    2.1754120130    0.1035559325
     H     2.5228840217   -2.1530496526   -0.0042027080
     H     8.2524074837   -1.3909465607    0.3458718848
     H     8.4769630348    0.9664871121    0.3303284065
     H     7.1369232625    1.8183700379    1.1284005675
     H     7.2410911643    1.8075670791   -0.6312936009
