67
-2.7519663398026660e+03 frame 86   xyz file generated by TeraChem
     F     1.3459588226   -2.2629629444    1.6888333283
     C     1.5266547883   -1.4560729052    0.6508345680
     S     0.9767640840   -2.2625370333   -0.9183377291
     O    -0.4042590922   -2.6851595455   -0.6813070110
     O     1.2031712668   -1.2550284960   -1.9564385605
     N     2.0682798265   -3.4527020915   -0.9463031448
     S     1.7960151673   -4.7789856253   -1.7927792786
     O     0.7752337700   -4.6457091013   -2.8329807833
     O     3.0849771774   -5.3768902609   -2.1448286819
     C     1.0698952171   -5.9933717327   -0.5864273610
     F     0.0685778545   -5.4491094399    0.0948734195
     F     0.6105070873   -7.0457965782   -1.2595338819
     F     1.9994226479   -6.4073505703    0.2734034432
     F     0.7894823239   -0.3600260062    0.8224016694
     F     2.8060989102   -1.1037938648    0.5830874965
     C     6.5087961611   -6.5780251622   -2.2094378282
     C     7.3573306733   -5.5389488117   -2.9361670254
     C     6.6069799323   -4.8049941793   -4.0494168345
     C     5.6653441903   -3.6878896684   -3.6014102650
     N     6.4065018807   -2.5067123360   -3.0933378878
     C     6.9811889755   -1.7369080035   -4.0534480264
     C     7.7004244431   -0.6104666062   -3.7597951155
     C     7.8480642026   -0.2584426176   -2.4109883407
     C     7.2696126689   -1.0421503169   -1.4408581926
     C     6.5169832720   -2.1930499618   -1.7624113307
     C     5.8971730053   -3.0125400010   -0.7559938400
     C     5.6767300269   -2.5816279071    0.5187427925
     C     5.0526889157   -3.3027737770    1.5897243733
     C     4.5973316736   -4.6356691555    1.4969102674
     C     3.9585840490   -5.2579692551    2.5443413626
     C     3.7170847461   -4.5822749172    3.7729489483
     C     4.2028121103   -3.2523750228    3.8797527087
     C     4.8386134379   -2.6448426642    2.8186809036
     N     3.0472951422   -5.1842189322    4.7926898879
     C     2.6754990076   -4.4609587141    6.0010980120
     C     3.7484505419   -4.5014620214    7.0827750080
     C     2.6008985841   -6.5687102958    4.7127374789
     C     1.2473939094   -6.7301808252    4.0285276743
     H     7.0721334762   -7.0477523494   -1.3959732305
     H     6.1954806738   -7.3679946790   -2.9021380636
     H     5.5972278395   -6.1470299446   -1.7809646535
     H     8.2253556346   -6.0395800326   -3.3819110279
     H     7.7691446262   -4.8143760042   -2.2206551040
     H     5.9966948020   -5.5208312816   -4.6152828068
     H     7.3216451814   -4.3834520578   -4.7681796360
     H     4.9455791288   -4.0148616231   -2.8530703720
     H     5.0836697534   -3.3293729391   -4.4545169287
     H     6.8207012804   -2.0719844561   -5.0714188218
     H     8.1362600013   -0.0260943383   -4.5614269582
     H     8.4240986251    0.6175233494   -2.1289359141
     H     7.4106692376   -0.7954700179   -0.3960626650
     H     5.5678582249   -4.0048026026   -1.0343984850
     H     5.9598812024   -1.5625739654    0.7782926211
     H     4.7269877459   -5.1934615044    0.5737238058
     H     3.6103381510   -6.2734587755    2.4033631789
     H     4.0830978694   -2.6975109683    4.8028648760
     H     5.1862084278   -1.6202502461    2.9340584775
     H     1.7516026473   -4.9143872315    6.3755605078
     H     2.4214131600   -3.4279983216    5.7430582726
     H     3.9709343688   -5.5348150277    7.3707779650
     H     3.4064613504   -3.9656625339    7.9749615520
     H     4.6780915670   -4.0364274287    6.7384297678
     H     2.5461252000   -6.9470366705    5.7390005106
     H     3.3657403719   -7.1702915158    4.2119501916
     H     0.4789125333   -6.1486508076    4.5495296546
     H     0.9437922755   -7.7826865159    4.0396909968
     H     1.2796206843   -6.3954491355    2.9865677692
