51
-1.2082304113238447e+03 frame 113   xyz file generated by TeraChem
     O     3.0931975363    0.6800577002    0.8548726820
     C     2.7335758731    0.2449421733   -0.2428491563
     C     1.5146748983    0.8203120435   -0.8942256418
     C     0.9582143032    2.0006651606   -0.3293046207
     C    -0.1609580689    2.5797328246   -0.8663546407
     C    -0.8045292445    2.0099006792   -1.9970231560
     C    -0.2619258325    0.8180801244   -2.5645292337
     C     0.9004321510    0.2480150071   -1.9915900109
     C    -0.8992839671    0.2360638851   -3.6902352783
     C    -2.0228236173    0.8120491881   -4.2330609657
     C    -2.5591019391    1.9943076419   -3.6716975645
     C    -1.9638198594    2.5796786201   -2.5783790741
     C     3.4718284936   -0.8106648132   -0.9362874236
     C     4.5692607217   -1.3697239948   -0.3702080261
     C     5.3943147307   -2.4048648805   -0.9203117852
     C     5.2159259176   -3.0879533458   -2.1151440597
     N     6.1976730339   -4.0098934867   -2.2910043116
     C     7.0632719076   -3.9579037185   -1.2121342790
     C     6.5880435025   -2.9632125677   -0.3263674884
     C     7.2924025839   -2.7202594471    0.8606737420
     C     8.4322690032   -3.4656646355    1.1260996093
     C     8.8858615347   -4.4503863435    0.2293471239
     C     8.2095147734   -4.7111709890   -0.9543198053
     C     6.3313893264   -4.8937368642   -3.4329836775
     C     7.4778283975   -4.5338703958   -4.3532854892
     C     8.2342929828   -5.5489424547   -4.9425543711
     C     9.2596370720   -5.2408197330   -5.8347104186
     C     9.5444170378   -3.9115134251   -6.1385881449
     C     8.7977801576   -2.8932398476   -5.5467953101
     C     7.7691596370   -3.2025346655   -4.6608608417
     H     1.4494737183    2.4292484325    0.5382852940
     H    -0.5750739877    3.4871342923   -0.4326828701
     H     1.2805168217   -0.6663950701   -2.4369303182
     H    -0.4803495474   -0.6730623097   -4.1154868094
     H    -2.5041037819    0.3610473100   -5.0965634459
     H    -3.4483496492    2.4397231126   -4.1097329756
     H    -2.3744093847    3.4883398343   -2.1443387852
     H     3.1446788629   -1.1284649650   -1.9205521618
     H     4.8567104125   -0.9899107766    0.6101414677
     H     4.4364198628   -2.9846065618   -2.8592446489
     H     6.9531181882   -1.9621795814    1.5620981337
     H     8.9876946750   -3.2868066820    2.0428810904
     H     9.7830505956   -5.0159591033    0.4654838790
     H     8.5622814701   -5.4652588738   -1.6516548330
     H     5.3804807274   -4.8553757659   -3.9751510440
     H     6.4517207984   -5.9200740350   -3.0694161147
     H     8.0190190885   -6.5879492397   -4.7011877611
     H     9.8410838130   -6.0409293528   -6.2853661769
     H    10.3471456418   -3.6686674248   -6.8297716183
     H     9.0164867149   -1.8535299592   -5.7760998653
     H     7.1919865600   -2.4025123323   -4.2028275094
