92
-2.2591154641558296e+03 frame 74   xyz file generated by TeraChem
     O     2.2499697543   -0.0067038457   -1.6073669822
     C     2.8487939152    0.6950394462   -0.8267848027
     N     3.6345515987    1.8033198029   -1.2527287497
     C     3.3948646097    3.1314690713   -0.7293253308
     O     2.7772396487    3.3662254968    0.2899262954
     C     4.0228355478    3.9879618925   -1.7148567910
     C     4.5433067181    3.1756796601   -2.7617673059
     C     4.3051799239    1.8492049795   -2.4863958209
     C     4.7473595828    0.6683408830   -3.2043205367
     C     5.0666953682   -0.5306324053   -2.5388171253
     C     5.5431087621   -1.6233358556   -3.2374727161
     C     5.7098239262   -1.5775749421   -4.6354224904
     C     5.4012636808   -0.3717229782   -5.2893075412
     C     4.9357865772    0.7315973042   -4.5942052109
     C     6.1943732500   -2.7001776834   -5.4287147377
     C     6.4220783770   -3.9517460124   -4.9811591417
     C     6.9105514096   -5.0832739965   -5.7655150827
     C     7.3324653101   -4.9752600544   -7.1026833912
     C     7.7838099579   -6.0902717469   -7.7966323773
     C     7.8279908206   -7.3404437355   -7.1757771974
     C     7.4177865096   -7.4639353173   -5.8502110363
     C     6.9668830325   -6.3470295713   -5.1543021813
     C     5.1536346211    4.0375488775   -3.7547498950
     O     5.7590552918    3.8124363161   -4.7829582553
     N     4.9135168441    5.3636955915   -3.2287526667
     C     4.2359858466    5.3153234865   -1.9994065762
     C     3.7419045549    6.4873552199   -1.2993065490
     C     3.6131187418    6.4627554346    0.1004990041
     C     3.1071966550    7.5538571830    0.7834220426
     C     2.6898092681    8.7115389712    0.0998437904
     C     2.8006361200    8.7157580208   -1.3029248169
     C     3.3199425895    7.6329301703   -1.9917907150
     C     2.1474022729    9.8931286254    0.7595483180
     C     1.9696948322   10.0557501633    2.0862759919
     C     1.4317061980   11.2363120701    2.7580467509
     C     1.0298681210   12.4018293805    2.0810411344
     C     0.5282997641   13.4916568821    2.7803857078
     C     0.4135079263   13.4487044120    4.1715224983
     C     0.8068740067   12.3018913857    4.8576096246
     C     1.3096746168   11.2101797609    4.1574373583
     C     5.6402248706    6.4634082259   -3.7648601806
     O     5.7185806934    6.6546309490   -4.9532870962
     O     6.2085148322    7.1456751736   -2.7869602479
     C     6.9916407250    8.3707324558   -3.0472486089
     C     6.1188471693    9.4178517298   -3.7247830437
     C     7.3794547454    8.8119591614   -1.6445929579
     C     8.2232717568    8.0166640274   -3.8675403521
     O     2.9086823699    0.5949124226    0.4832020256
     C     2.0245671824   -0.3308030945    1.2203572990
     C     2.3906734391   -1.7662918630    0.8742052353
     C     2.3588506251   -0.0141394928    2.6694548746
     C     0.5712039621   -0.0004076512    0.9124017625
     H     4.9837579287   -0.5951264887   -1.4580393080
     H     5.8021743784   -2.5215676493   -2.6849846790
     H     5.5291124322   -0.3069599310   -6.3670935690
     H     4.7156805845    1.6509167417   -5.1261152566
     H     6.3630785272   -2.4711271423   -6.4800399107
     H     6.2189777637   -4.1835609325   -3.9362307664
     H     7.3138324872   -4.0109423575   -7.6026720947
     H     8.1073484326   -5.9850272937   -8.8289213574
     H     8.1828704286   -8.2096917227   -7.7229168505
     H     7.4500233064   -8.4313009118   -5.3558380447
     H     6.6477506777   -6.4474226531   -4.1191375642
     H     3.9205976925    5.5797611093    0.6506622855
     H     3.0374479337    7.5031486818    1.8658026615
     H     2.4652986942    9.5886677100   -1.8577951396
     H     3.3630721329    7.6645577649   -3.0770259077
     H     1.8722358015   10.7005859306    0.0824461837
     H     2.2437025961    9.2442670364    2.7595275968
     H     1.1104153382   12.4592584270    0.9991176126
     H     0.2239420892   14.3830159249    2.2379033888
     H     0.0205948965   14.3044445990    4.7139344079
     H     0.7226857270   12.2565641235    5.9402485365
     H     1.6162061273   10.3165702599    4.6969550437
     H     5.2269686394    9.6199548104   -3.1235687868
     H     5.8146511429    9.1029646056   -4.7251422311
     H     6.6898708968   10.3478139320   -3.8139297582
     H     6.4875619446    9.0114755211   -1.0426409609
     H     7.9750546145    9.7279261239   -1.7026170881
     H     7.9748670191    8.0392518937   -1.1479157096
     H     7.9544815619    7.6956523177   -4.8759331209
     H     8.7931872231    7.2208837755   -3.3766443841
     H     8.8640717105    8.9013292454   -3.9411838363
     H     3.4537421843   -1.9461255089    1.0666681466
     H     2.1719249135   -1.9926707217   -0.1712087630
     H     1.8093638209   -2.4432036281    1.5088176086
     H     3.4175868788   -0.2047784203    2.8719144485
     H     1.7583281932   -0.6473241201    3.3294410055
     H     2.1394444497    1.0342886916    2.8938249036
     H     0.3165250463   -0.2317897326   -0.1238196809
     H     0.3760521946    1.0601142229    1.1027547413
     H    -0.0736188912   -0.5926726857    1.5695014914
