49
-1.3020095131551716e+03 frame 38   xyz file generated by TeraChem
     O     4.8732768178    0.2128256672    2.5498023967
     C     3.8822340247    0.9058737077    2.3342265697
     C     2.8310361502    0.7194176173    1.3335584950
     C     2.6901823692   -0.2933583903    0.4048353808
     C     3.5441369782   -1.3852334494    0.2267448219
     C     3.3589362843   -2.3977392432   -0.7171346090
     C     2.2834519072   -2.4567001747   -1.6613581133
     C     2.1726710550   -3.4932693404   -2.5322928883
     O     3.0946057686   -4.4875557925   -2.5561041261
     C     4.1407477019   -4.4858527837   -1.6932967391
     C     4.2858880353   -3.4863742820   -0.7846407209
     C     5.0076272449   -5.6557026375   -1.8600163681
     C     4.5478672103   -6.7770396365   -2.5667198991
     C     5.3612734142   -7.8944911373   -2.7150711452
     C     6.6418619420   -7.9088372175   -2.1658410322
     C     7.1081515198   -6.7949304075   -1.4677934014
     C     6.3009372634   -5.6747595195   -1.3163295497
     C     1.1183271605   -3.6764260329   -3.5339727560
     C     1.3239407807   -4.5225595322   -4.6336574416
     C     0.3256553731   -4.6859914459   -5.5875614911
     C    -0.8881227419   -4.0139248299   -5.4565360058
     C    -1.1020718286   -3.1776290466   -4.3611206948
     C    -0.1093906536   -3.0105672125   -3.4041577871
     C     1.8664186180    1.8152577784    1.4559230589
     O     0.8522642111    2.0028145853    0.7908536041
     C     2.3474832333    2.6864891024    2.5696146643
     C     3.5300120168    2.1503648145    3.0872552710
     C     4.1921836804    2.7590589371    4.1427150597
     C     3.6393665479    3.9274673369    4.6739623715
     C     2.4566467903    4.4643994243    4.1546207117
     C     1.7944483576    3.8462992278    3.0906709282
     H     1.8072281366   -0.1999038023   -0.2297175831
     H     4.4118556717   -1.4587843051    0.8760946156
     H     1.5456424470   -1.6660168370   -1.7060618604
     H     5.1115258040   -3.5202938439   -0.0830965724
     H     3.5483001313   -6.7750383373   -2.9891052681
     H     4.9910923412   -8.7585385363   -3.2597603101
     H     7.2765639902   -8.7827231849   -2.2841068889
     H     8.1091242348   -6.7951036454   -1.0456471477
     H     6.6872559836   -4.8070887266   -0.7902634080
     H     2.2707424425   -5.0413063509   -4.7449340597
     H     0.4984690380   -5.3394113651   -6.4382000368
     H    -1.6673850211   -4.1444987418   -6.2023366102
     H    -2.0504917834   -2.6606528674   -4.2455284693
     H    -0.3007819097   -2.3787276612   -2.5420309362
     H     5.1106139560    2.3363696705    4.5408477228
     H     4.1330103663    4.4284438987    5.5023656921
     H     2.0496715727    5.3745579450    4.5868739763
     H     0.8748141875    4.2558815674    2.6817791865
