46
-1.6227025259857410e+03 frame 47   xyz file generated by TeraChem
     O     1.8734048094   -4.0171919173    2.9433424568
     C     2.9320642395   -3.4175221608    2.7769768370
     C     3.3023425468   -2.4978549838    1.6932944242
     C     2.5299242006   -2.0912466340    0.6202120905
     C     1.2190563860   -2.4837895588    0.3405901421
     C     0.4703083379   -2.0442056392   -0.7545997489
     C     0.9278029590   -1.1206339495   -1.7486522700
     C     0.1201636879   -0.7363041158   -2.7714803648
     O    -1.1324504297   -1.2384713976   -2.9005109574
     C    -1.6170395115   -2.1322468440   -2.0030533625
     C    -0.8638025813   -2.5257083475   -0.9428313400
     C    -2.9845573205   -2.5577016658   -2.3112571694
     C    -3.7924169752   -1.7804266655   -3.1543035608
     C    -5.0933979854   -2.1785657360   -3.4397864590
     C    -5.6027946675   -3.3556735639   -2.8944262476
     C    -4.8025386371   -4.1366517749   -2.0608358170
     C    -3.5018222541   -3.7445587321   -1.7709094705
     C     0.4651395095    0.2003621487   -3.8450653055
     C    -0.2338033420    0.1702514359   -5.0606205892
     C     0.1065817263    1.0457746946   -6.0856727711
     C     1.1404971051    1.9637248951   -5.9109603036
     C     1.8325721263    2.0058064827   -4.7009910824
     C     1.4977814834    1.1335826214   -3.6728055914
     C     4.6785958511   -2.0148419815    1.8836662734
     O     5.3054179891   -1.2457230185    1.1627518120
     C     5.1602635483   -2.6569605795    3.1353551058
     C     4.1271976848   -3.4858230779    3.6621330571
     C     4.4766124830   -4.1195772804    4.8167063063
     S     6.0916709088   -3.6920367412    5.2607104203
     C     6.2954413446   -2.6598819036    3.8890919723
     H     3.0309065863   -1.3940767974   -0.0532231368
     H     0.7444095380   -3.1834788341    1.0220661422
     H     1.9325849723   -0.7197275487   -1.7100942257
     H    -1.2858187996   -3.2113816364   -0.2168059871
     H    -3.4021059498   -0.8588225449   -3.5739001208
     H    -5.7118888809   -1.5651981285   -4.0890155305
     H    -6.6190481606   -3.6662643379   -3.1208753184
     H    -5.1897693568   -5.0610407720   -1.6416839859
     H    -2.8812217884   -4.3752349681   -1.1415278902
     H    -1.0340011846   -0.5486477431   -5.2048742618
     H    -0.4367322430    1.0079670540   -7.0257185633
     H     1.4037936600    2.6479769126   -6.7128750111
     H     2.6307029666    2.7277122650   -4.5528190744
     H     2.0270149134    1.1962658888   -2.7265221378
     H     3.9033933050   -4.8017621733    5.4320475204
     H     7.2290919192   -2.1327970924    3.7372352310
