50
-1.3368800140447379e+03 frame 74   xyz file generated by TeraChem
     N     0.7424496285   -0.5321326895    0.4664122044
     C     1.7815853932   -0.1026781299    0.1682217743
     C     3.0490453316    0.4251776724   -0.2045799365
     C     3.1562246545    1.2749076822   -1.3201468539
     C     2.0636626412    1.4800343739   -2.2130516002
     N     1.1763640371    1.6468793040   -2.9443042449
     C     4.3558074548    1.9422651138   -1.5437249926
     C     4.9032615766    2.6908748104   -2.6864629044
     C     5.2607527936    3.9285995792   -2.2534262494
     C     6.5761089151    3.9029169236   -1.5981704981
     C     6.5296187506    2.8754605298   -0.6050838116
     C     5.4772517080    1.8043068410   -0.6490887834
     C     5.4974992916    0.5837237544    0.1019669271
     C     4.2229142324    0.0383859714    0.4825940784
     C     4.1549196372   -0.8855590592    1.5695165165
     C     5.2902160251   -1.3020671027    2.1876690623
     C     6.5767429167   -0.9662307575    1.6669920253
     C     6.6877263613   -0.1158234792    0.5463650793
     C     7.9668233699   -0.0334921000   -0.1224067318
     C     8.1304723138    0.4760386809   -1.4321963880
     C     9.3713686268    0.5382540554   -2.0297320437
     C    10.5175159003    0.0884260748   -1.3484731131
     C    10.3847820927   -0.4749239568   -0.0995681345
     C     9.1189769273   -0.5768750426    0.5210184374
     C     8.9782334067   -1.2784798457    1.7530103621
     C     7.7424263129   -1.5160158886    2.2735568112
     C     7.4113968759    3.0549261833    0.5267092069
     C     7.2100595995    2.4558635072    1.7968500933
     C     8.1026290951    2.6358672699    2.8293649048
     C     9.2594475450    3.4213614138    2.6540229541
     C     9.4437493392    4.0895064299    1.4685270993
     C     8.5115228543    3.9662735933    0.4082718879
     C     8.6155904396    4.8196059802   -0.7180155190
     C     7.6045105700    4.8600113817   -1.6432465821
     H     5.6965290102    2.1229827002   -3.1844864513
     H     4.5223958228    4.5467412726   -1.7320122403
     H     3.1821578499   -1.2364100396    1.9011938332
     H     5.2371275849   -1.9667413155    3.0459104423
     H     7.2610047704    0.7856113233   -1.9996653293
     H     9.4589683858    0.9246779997   -3.0414278396
     H    11.4934185913    0.1525803067   -1.8215595552
     H    11.2503172063   -0.8775911929    0.4212131844
     H     9.8700112122   -1.6723321501    2.2342535876
     H     7.6207739420   -2.1223437638    3.1674939896
     H     6.3119040893    1.8826163147    1.9833047100
     H     7.9019243197    2.1768304496    3.7935561788
     H     9.9709731946    3.5339358349    3.4671376672
     H    10.2881248848    4.7613507757    1.3349373334
     H     9.4612811095    5.4993714424   -0.7850717588
     H     7.5976390418    5.5982204545   -2.4391785036
