106
-3.8920577684203618e+03 frame 79   xyz file generated by TeraChem
     C     3.1368580350    0.8127879043    0.7995313101
     N     4.5507473994    0.7840797982    0.5056815927
     C     5.3136011012   -0.3780725903    0.8062333143
     O     4.8179570754   -1.3827733575    1.3060308491
     C     6.6549156017   -0.0311546147    0.4110108934
     C     6.6403179075    1.2978368630   -0.0820982711
     C     5.3360363689    1.7887989628   -0.0306161850
     C     4.8795534603    3.0761978811   -0.4597207677
     C     5.7055233667    4.0803894980   -0.9470239732
     C     5.0118783574    5.2364299911   -1.3359880538
     C     3.6428542251    5.1473270280   -1.1619790193
     S     3.2172487263    3.6095150588   -0.4860557939
     C     2.6257324385    6.1447310795   -1.4707889999
     C     2.9656960179    7.5015762130   -1.5830979193
     C     2.0113400902    8.4611998323   -1.8853651465
     C     0.6737529477    8.1043721730   -2.1139790009
     C     0.3340922480    6.7429264494   -2.0066913001
     C     1.2830675093    5.7887012460   -1.6726242832
     S    -1.3128093038    6.2496527761   -2.4286037813
     C    -2.1682012188    7.6383904600   -1.7370245217
     C    -1.5820554629    8.9107726668   -1.8449937614
     N    -0.3109252361    9.0430434229   -2.4388315188
     C     0.0897819694   10.3234963732   -3.0167548395
     C     0.7767325599   10.1724362369   -4.3802788694
     C    -0.1728478064    9.5348052516   -5.3911070387
     C     1.2728889935   11.5352788024   -4.8800975817
     C     2.4384775089   12.1278994846   -4.0933947918
     C    -2.2871424683   10.0084527053   -1.3356479102
     C    -3.5560248574    9.8433038379   -0.7854206771
     C    -4.1304661140    8.5790634925   -0.6928168834
     C    -3.4208789217    7.4723179877   -1.1523636943
     C     7.9708525643    1.6348694890   -0.5084180513
     O     8.4704196567    2.6522704430   -0.9874855544
     N     8.7265337954    0.4614917281   -0.2497927916
     C     7.9425757158   -0.5493398051    0.2918194666
     C     8.4275809008   -1.8599463389    0.6168901108
     C     9.6584715530   -2.4502644602    0.3624071676
     C     9.7524157067   -3.7774488503    0.8107954489
     C     8.6004716154   -4.2377217256    1.4185455254
     S     7.3858030764   -3.0032002445    1.4377428656
     C     8.3520715842   -5.5619336091    1.9774035028
     C     7.0564839167   -6.0670881934    2.1553620490
     C     6.8407850802   -7.3385659017    2.6679247883
     C     7.9161756438   -8.1773951801    2.9928379722
     C     9.2168588587   -7.6697145751    2.8157418472
     C     9.4303118191   -6.3837691170    2.3431870464
     S    10.5914585149   -8.7409533731    3.1263870387
     C     9.9297522618   -9.5948908681    4.5299648788
     C     8.5596473533   -9.9064998318    4.5428957754
     N     7.7387920787   -9.4776590329    3.4813665605
     C     6.4808426357  -10.1716289791    3.2175886313
     C     6.2217557564  -10.3942733660    1.7217096396
     C     7.3329073085  -11.2386240492    1.1037771609
     C     4.8531976674  -11.0534561636    1.5086197864
     C     3.6506343615  -10.1812834100    1.8563064307
     C     8.0563874193  -10.6261293375    5.6343455872
     C     8.9046806115  -11.0595913322    6.6503863641
     C    10.2614356829  -10.7507822982    6.6229583117
     C    10.7676254093   -9.9974467962    5.5665733789
     C    10.1473740857    0.4631316196   -0.5080853360
     H     2.9028500526   -0.1442017988    1.2700290252
     H     2.5396431409    0.9117971616   -0.1119338107
     H     2.8903672943    1.6198249233    1.4958419939
     H     6.7806463965    3.9460393175   -1.0291691455
     H     5.4965195799    6.1078999234   -1.7625134208
     H     3.9878204294    7.8188537332   -1.3996863466
     H     2.3113365615    9.5022200400   -1.9372107585
     H     0.9760177508    4.7471843147   -1.6145189849
     H     0.7123878204   10.8945864226   -2.3151258654
     H    -0.8221825691   10.9053676782   -3.1738012481
     H     1.6516258442    9.5177633775   -4.2663696358
     H    -1.0451485698   10.1791587745   -5.5609497560
     H    -0.5342654878    8.5614226693   -5.0426868893
     H     0.3291832360    9.3867671691   -6.3536567940
     H     0.4297755826   12.2418591228   -4.8887058077
     H     1.5781658188   11.4175293216   -5.9281574499
     H     2.1661203855   12.3676203175   -3.0595370553
     H     2.7896890924   13.0552748414   -4.5592935222
     H     3.2840969628   11.4301073378   -4.0619534857
     H    -1.8436159127   10.9984718921   -1.3605410673
     H    -4.0873276728   10.7143110909   -0.4117883850
     H    -5.1166755174    8.4493113471   -0.2569946546
     H    -3.8428354083    6.4737747572   -1.0755879356
     H    10.4694258595   -1.9619464567   -0.1583559821
     H    10.6337028613   -4.3916406793    0.6620030090
     H     6.1943841339   -5.4642504892    1.8816448087
     H     5.8213109205   -7.6835785132    2.8022750144
     H    10.4500426045   -6.0214336865    2.2522102059
     H     5.6380958678   -9.6557535618    3.6973940968
     H     6.5550138551  -11.1570977349    3.6853423518
     H     6.2056495854   -9.4200184360    1.2140617357
     H     7.3562332949  -12.2389120822    1.5555488817
     H     8.3152481976  -10.7784286064    1.2522888012
     H     7.1727990667  -11.3598298242    0.0266345188
     H     4.8140238982  -11.9902793008    2.0841622077
     H     4.7848817721  -11.3459297700    0.4525497302
     H     3.6039782617   -9.9412385737    2.9241849284
     H     2.7152981348  -10.6896738784    1.5972039440
     H     3.6782536528   -9.2344628212    1.3032091766
     H     6.9955512811  -10.8446919662    5.6991577572
     H     8.4899600395  -11.6285907037    7.4779542767
     H    10.9215635259  -11.0817683504    7.4192465903
     H    11.8209928924   -9.7321976025    5.5314476270
     H    10.4082760125    1.4871387172   -0.7807321616
     H    10.4057037588   -0.1965074504   -1.3422697199
     H    10.7103524186    0.1739724098    0.3835494806
