57
-1.5408989290758668e+03 frame 79   xyz file generated by TeraChem
     C    -0.7272885866   -4.1918378928   -0.1563874656
     N    -0.7149839013   -2.7480697108   -0.1184382420
     C    -1.8234024712   -1.9341230454   -0.0832509910
     C    -3.1777811236   -2.2763461561   -0.1156831808
     C    -4.1042603345   -1.2462513130   -0.0841255096
     C    -3.7140020899    0.1082148697   -0.0039118243
     C    -2.3578879782    0.4399107573    0.0145518639
     C    -1.4084761484   -0.5780958970   -0.0158847854
     C     0.0323241605   -0.5946258784    0.0017795002
     C     0.4152131432   -1.9577330063   -0.0497393435
     C     1.7536409999   -2.3430705460   -0.0211682168
     C     2.7230011240   -1.3389220211    0.0310137290
     C     2.3503702964    0.0207329306    0.0888718865
     C     1.0161568992    0.3946297202    0.0745111919
     C     4.1580897609   -1.7108639980    0.0936053185
     C     5.2007804862   -1.1615296091   -0.5783195117
     C     5.1845755757   -0.1799858669   -1.6622990415
     C     6.3081077292    0.6482595368   -1.8189611858
     C     6.3741598994    1.5762451957   -2.8464349301
     C     5.3152326609    1.6682675347   -3.7590781779
     C     4.2000250923    0.8257647988   -3.6362220939
     C     4.1377978075   -0.0851198015   -2.5952202331
     C     5.3777249070    2.6141809726   -4.8286355696
     N     5.4280595737    3.3843193866   -5.6977262469
     C     4.4806286378   -2.7530594194    1.0244302219
     N     4.7168895612   -3.6069579250    1.7781476569
     C    -4.7450118393    1.1725273642    0.0045002039
     C    -4.8088682148    2.2851471297    0.7792906918
     C    -3.9854382375    2.6655321868    1.9266607064
     C    -3.8684593268    4.0337656818    2.2236249244
     C    -3.1343418085    4.4700523723    3.3152977693
     C    -2.5212758209    3.5287419802    4.1522065005
     C    -2.6553488917    2.1567701170    3.8893319718
     C    -3.3776995591    1.7340866551    2.7865013029
     C    -1.7684618930    3.9660728269    5.2852690410
     N    -1.1552390024    4.3218897221    6.2064551638
     C    -5.7829713907    1.0259461387   -0.9753109221
     N    -6.6185903844    0.8813718848   -1.7715780767
     H    -1.6203298450   -4.5337951139   -0.6833041292
     H    -0.7183696784   -4.6224876886    0.8512929024
     H     0.1474553017   -4.5486515489   -0.7046307337
     H    -3.5048981966   -3.3102029499   -0.1622111039
     H    -5.1633553260   -1.4892276018   -0.1110400319
     H    -2.0494021242    1.4811216098    0.0462265738
     H     2.0422819425   -3.3899702841   -0.0393428675
     H     3.1243622403    0.7779596969    0.1638546438
     H     0.7419734964    1.4445534753    0.1334222281
     H     6.1956253032   -1.4958476312   -0.2888990573
     H     7.1349933079    0.5647232965   -1.1189837909
     H     7.2405715121    2.2213086141   -2.9518742626
     H     3.3930409758    0.8872559165   -4.3593901745
     H     3.2803072803   -0.7440337638   -2.5154848361
     H    -5.5855552428    3.0059543188    0.5289412326
     H    -4.3561409310    4.7625685193    1.5817971362
     H    -3.0395559090    5.5301739098    3.5277032532
     H    -2.1964706952    1.4315721516    4.5538994846
     H    -3.4867473620    0.6717541590    2.5989412326
