69
-1.8552305635330263e+03 frame 54   xyz file generated by TeraChem
     C     1.4318915592    0.1081446207    0.4370499868
    Si     3.2871554168   -0.1207215408    0.6478150039
     C     3.7058660559   -1.8630142650    0.1962446044
     C     3.9903236271   -3.0147012126   -0.1043237223
     C     4.3238868233   -4.3514777553   -0.4509983671
     C     5.5988235137   -4.6348707669   -1.0025252161
     C     6.5529384291   -3.6029033002   -1.2255601760
     C     7.7774348304   -3.9085750750   -1.7571203367
     C     8.9193852665   -3.0590478264   -2.0902459925
     C     9.0904109657   -1.6797116577   -1.9669234091
     C    10.2983050385   -1.1171041822   -2.3714667643
     C    11.3182231192   -1.9206927236   -2.8897751711
     C    11.1459120129   -3.3008394268   -3.0124657403
     C     9.9430319398   -3.8685530969   -2.6115226020
     C     9.5304081982   -5.3317799317   -2.6519982175
     C     8.1200528626   -5.2573545206   -2.0905202098
     C     7.2269144139   -6.2671909787   -1.8934648794
     C     5.9377888583   -5.9899720781   -1.3457782347
     C     4.9932679945   -7.0227255613   -1.1365450020
     C     3.7167418570   -6.7367079888   -0.5880569726
     C     3.3801121336   -5.3880056065   -0.2403500475
     C     2.0939525076   -5.1258794975    0.3115215008
     C     1.1909131990   -6.1356680880    0.5077767167
     C     1.5236554040   -7.4702815353    0.1615594260
     C     2.7515335578   -7.7596903098   -0.3704248024
     C     5.3268251031   -8.3606697741   -1.4814869111
     C     5.6173060228   -9.5108133281   -1.7815920589
    Si     6.0620363485  -11.2451994917   -2.2390097742
     C     5.5340672216  -11.5399117989   -4.0207854684
     C     7.9241643881  -11.4380068993   -2.0515022350
     C     5.1497473305  -12.4088349997   -1.0764528279
     C     9.5338490111   -5.8792504565   -4.0869510592
     C    10.4381738041   -6.1947860396   -1.7630477285
     C     4.2400723931    1.0224558561   -0.5029275456
     C     3.7972942584    0.1654472460    2.4361736245
     H     1.1239725206   -0.0852287228   -0.5965453496
     H     1.1456109505    1.1368066524    0.6874162192
     H     0.8712434393   -0.5679706713    1.0921803007
     H     6.2881754392   -2.5811366916   -0.9687466254
     H     8.2972650656   -1.0537979553   -1.5649953545
     H    10.4501624100   -0.0445673525   -2.2837619395
     H    12.2548978875   -1.4656225787   -3.2011673100
     H    11.9450164831   -3.9176229512   -3.4175678865
     H     7.4719823627   -7.2956173487   -2.1456677229
     H     1.8432818712   -4.1024476100    0.5742447827
     H     0.2141246646   -5.9164764451    0.9301403960
     H     0.7995115435   -8.2645816123    0.3202124461
     H     3.0104789242   -8.7801908015   -0.6364878953
     H     6.0419760336  -10.8522047629   -4.7058679182
     H     4.4533791307  -11.4059361157   -4.1412323584
     H     5.7830440751  -12.5644406980   -4.3231215771
     H     8.4642488000  -10.7526320899   -2.7143419797
     H     8.2265983808  -12.4615427941   -2.3039646449
     H     8.2408952463  -11.2375103351   -1.0219173109
     H     4.0640100943  -12.2953122679   -1.1721694536
     H     5.4213137799  -12.2202349957   -0.0319371814
     H     5.4020411890  -13.4504922406   -1.3087445620
     H     8.8852303616   -5.2850115134   -4.7388395261
     H     9.1804687249   -6.9163253278   -4.0985127250
     H    10.5490529284   -5.8609740076   -4.4992024209
     H    10.4492249936   -5.8260038538   -0.7321484537
     H    11.4654079482   -6.1861731151   -2.1449664485
     H    10.0876338897   -7.2330664433   -1.7552228381
     H     3.9827695263    0.8357169320   -1.5513556909
     H     5.3217767565    0.8885812414   -0.3882407679
     H     4.0039512947    2.0694939624   -0.2779294596
     H     3.2659470795   -0.5106095643    3.1150636121
     H     3.5652573284    1.1953034231    2.7338911533
     H     4.8732052060    0.0093251318    2.5717915525
