33
-1.3695703222938901e+03 frame 30   xyz file generated by TeraChem
     C     1.3959844127   -0.3053943054    0.2860731101
     C     2.8779112241   -0.2551917217    0.2451017193
     N     3.6226006164    0.8453133730    0.2587832273
     C     4.9029435512    0.4404611501    0.2087292283
     C     5.0037495710   -0.9423644082    0.1620117656
     N     3.6670572121   -1.3653340847    0.1865965241
     C     3.3370528782   -2.7051845184    0.1527698445
     C     4.3209805246   -3.6315118600    0.0967403471
     C     5.7024164072   -3.2328058360    0.0723774639
     C     6.0325215294   -1.8986218331    0.1043219996
     C     6.7208591815   -4.2578365610    0.0153079174
     N     6.5670699226   -5.5491895017   -0.0261308932
     N     7.8287700210   -6.0948633572   -0.0708013017
     C     8.6688965536   -5.1023772117   -0.0538416893
     O     8.0290073557   -3.9083458729    0.0008146752
     C    10.1207761367   -5.1337366841   -0.0848060203
     C    10.7807105617   -6.3697392723   -0.1222952473
     C    12.1684278172   -6.4104744119   -0.1525798372
     C    12.9060682730   -5.2258714232   -0.1458800646
     C    12.2503915360   -3.9963878286   -0.1086454670
     C    10.8613464248   -3.9452673392   -0.0777872360
    Cl     6.2155007342    1.5517363577    0.2066358552
     H     1.0118330944    0.7149167103    0.3381966362
     H     1.0337606775   -0.8586862086    1.1610238749
     H     0.9825410142   -0.7874580815   -0.6081320667
     H     2.2806811998   -2.9432128008    0.1743528922
     H     4.0646652912   -4.6839232372    0.0705697729
     H     7.0639223997   -1.5629476698    0.0867126751
     H    10.1996213041   -7.2869083927   -0.1269027475
     H    12.6774136556   -7.3697434274   -0.1810475329
     H    13.9917497609   -5.2619519444   -0.1697013683
     H    12.8217559397   -3.0725461733   -0.1034890140
     H    10.3511272197   -2.9873296948   -0.0490988503
