104
-2.5621830201801313e+03 frame 70   xyz file generated by TeraChem
     C     2.9235437952    2.9982188499   -1.8285822228
     C     2.1114891633    2.0937829603   -2.7513501291
     N     0.8070117426    1.7550099730   -2.2121906815
     C    -0.3424418381    2.4950501663   -2.3805406841
     C    -0.5440211748    3.6609321601   -3.1230894504
     C    -1.8201853025    4.1971239220   -3.1365632371
     C    -2.9002699849    3.6135946861   -2.4304227068
     C    -2.6744433574    2.4444685347   -1.6856422937
     C    -1.4038223695    1.8877784283   -1.6583290495
     C    -0.8383659413    0.7229317600   -1.0131408363
     C     0.5329703831    0.6903630898   -1.3811559651
     C     1.3848703726   -0.3149358977   -0.9188734280
     C     0.8403013080   -1.2842642660   -0.0922539421
     C    -0.5225751273   -1.2813751785    0.2881820989
     C    -1.3606368083   -0.2596902956   -0.1843222490
     C    -0.9909200876   -2.3441087660    1.1614057509
     C    -2.2394359787   -2.5450950211    1.6273226325
     C    -2.5143134565   -3.6876848977    2.5098036171
     O    -1.6874151387   -4.4971407065    2.8891460404
     O    -3.7907830049   -3.8297134687    2.9199125959
     C    -4.1956625902    4.2602619393   -2.5220456209
     C    -5.3448434090    3.8882737861   -1.9113849133
     C    -6.5921245875    4.5843665796   -2.0747414881
     C    -7.7611738602    4.2235128704   -1.4638074448
     C    -8.9561700062    4.9611431041   -1.6897722726
     C   -10.1749431917    4.6096336131   -1.0762607788
     C   -11.3577133838    5.3448921033   -1.3136635957
     N   -12.3307704940    5.9562370934   -1.5168989753
     C   -10.2645215871    3.5064919847   -0.1982115904
     N   -10.3280908773    2.5946422265    0.5273426022
     C    -8.8501533022    6.0727607783   -2.5706002777
     C    -7.6534975019    6.3917580023   -3.1507810160
     O    -6.5449958827    5.6535487699   -2.9041736741
     C    -7.4574491238    7.4984336720   -4.0469616600
     C    -6.2608166266    7.8115607092   -4.5964493301
     C    -5.9676071313    8.9007065062   -5.5086410973
     C    -4.6284223392    9.0536894394   -5.9440142210
     C    -4.2355503458   10.0578253263   -6.8111678999
     C    -5.2180547965   10.9425496015   -7.2649944529
     C    -6.5704329209   10.8133904860   -6.8473347296
     C    -6.9401873603    9.7992266972   -5.9747637779
     C    -7.2992312621   11.8741548023   -7.5040939342
     C    -8.6321950172   12.2686766406   -7.5091593079
     C    -9.0314723630   13.3659014727   -8.2851103777
     C   -10.4328979207   13.7455983221   -8.2597955550
     C   -11.0367177652   14.7545449480   -8.9185474592
     C   -12.4810061142   14.9692232587   -8.7480140274
     O   -13.2127942523   14.2870970365   -8.0538955974
     O   -13.0147638765   16.0094434771   -9.4197640741
     C    -8.0626613741   14.0541755535   -9.0564390564
     C    -6.7310987560   13.6810902936   -9.0661898480
     C    -6.3528572745   12.5846377916   -8.2819811520
     N    -5.1085849902   12.0118232266   -8.1281090393
     C    -3.8940215564   12.4804869473   -8.7737054221
     C    -3.2629417509   13.7059775220   -8.1009085071
     C    -2.8930046328   13.4178242304   -6.6483480886
     C    -2.0338704354   14.1766437842   -8.8896537030
     C    -2.3277958963   14.7084239518  -10.2890584235
     C     4.2822836100    3.3511109784   -2.4250653478
     C     5.1046768972    4.2522054564   -1.5119708084
     H     3.0601022254    2.4964258482   -0.8612877255
     H     2.3530551743    3.9161266757   -1.6332472966
     H     2.6476302054    1.1590328418   -2.9452184543
     H     1.9556308563    2.5756020849   -3.7220842500
     H     0.2634110898    4.1369150933   -3.6708446616
     H    -2.0044830712    5.1033821450   -3.7085184651
     H    -3.4836244278    1.9723462318   -1.1349156982
     H     2.4361375143   -0.3426092030   -1.1885388339
     H     1.4816699905   -2.0785424963    0.2818466033
     H    -2.4105551402   -0.2296754029    0.0947589687
     H    -0.2364392269   -3.0661887196    1.4744049749
     H    -3.0645178912   -1.8851165009    1.3699661397
     H    -4.3531948581   -3.1304853503    2.5488050074
     H    -4.2249375212    5.1411603154   -3.1614720033
     H    -5.3912452489    3.0250145217   -1.2533294633
     H    -7.7539659210    3.3600470805   -0.8077002832
     H    -9.7127784158    6.6896874736   -2.7973381630
     H    -8.3525839500    8.0782936484   -4.2535395951
     H    -5.4067453815    7.1882437693   -4.3360435961
     H    -3.8818929120    8.3528744952   -5.5781495736
     H    -3.1980227614   10.1475412737   -7.1162454211
     H    -7.9769630920    9.7067989926   -5.6622974975
     H    -9.3693544339   11.7311016875   -6.9168408766
     H   -11.0728612519   13.1336617808   -7.6238869221
     H   -10.4897604939   15.4251343992   -9.5769896613
     H   -12.3346655452   16.4719805919   -9.9360286172
     H    -8.3662751668   14.9027447391   -9.6625232142
     H    -6.0085240424   14.2268218412   -9.6649644974
     H    -4.1427468980   12.6973459500   -9.8172908889
     H    -3.1790043295   11.6514725154   -8.7818385728
     H    -4.0041596383   14.5188478549   -8.1172334869
     H    -2.1535172590   12.6091650313   -6.5884556810
     H    -3.7651701332   13.1237751062   -6.0545194443
     H    -2.4563504731   14.3077352704   -6.1816109291
     H    -1.3089569794   13.3513255890   -8.9446330632
     H    -1.5477166660   14.9675450995   -8.3038507630
     H    -2.7073333114   13.9305889253  -10.9607076759
     H    -1.4203065083   15.1174736026  -10.7464672742
     H    -3.0744369257   15.5111725697  -10.2526561293
     H     4.1344674110    3.8444364355   -3.3956426465
     H     4.8392570125    2.4265639332   -2.6304699974
     H     4.5815347079    5.1954154477   -1.3140632414
     H     6.0745037237    4.4948212241   -1.9599140069
     H     5.2926953831    3.7675102922   -0.5465112803
