33
-2.2884358025744691e+03 frame 31   xyz file generated by TeraChem
     C     1.6549312736    0.4430713459   -0.3087709679
     C     3.1322680305    0.3159999641   -0.2662399835
     N     4.0028125223    1.3203318962   -0.2729600798
     C     5.2257757230    0.7665202467   -0.2215870482
     C     5.1608470484   -0.6186032081   -0.1800543723
     N     3.7835095303   -0.8803899265   -0.2110303352
     C     3.2984524304   -2.1726337725   -0.1851182943
     C     4.1667563765   -3.2079712079   -0.1253138761
     C     5.5854478504   -2.9738535467   -0.0892436594
     C     6.0704154348   -1.6879554113   -0.1177359679
     C     6.4723394219   -4.1127126534   -0.0215557458
     N     6.1644919549   -5.3776532806    0.0138520951
     N     7.3467802772   -6.0670276389    0.0809401385
     C     8.3023805114   -5.1820883310    0.0796078367
     O     7.8121013017   -3.9239685915    0.0162178997
     C     9.7301855851   -5.4664262831    0.1164208431
     C    10.1005496845   -6.8095475437   -0.0709437223
     C    11.4221880425   -7.2163356700   -0.0489095631
     C    12.4121523721   -6.2598947930    0.1616772631
     C    12.0913535759   -4.9228407664    0.3531177978
     C    10.7554849398   -4.5311714599    0.3329612220
    Cl    10.4453467996   -2.8460664181    0.6105913288
    Cl    14.0793944248   -6.7395857160    0.1864176287
    Cl     6.6611149922    1.7124490818   -0.2098987084
     H     1.3954522970    1.5028695264   -0.3317319290
     H     1.1864395122   -0.0130958059    0.5715420612
     H     1.2332645690   -0.0389438748   -1.1990779487
     H     2.2217129925   -2.2851073494   -0.2149123084
     H     3.7872880986   -4.2227442731   -0.1042428093
     H     7.1339949396   -1.4745867187   -0.0926838156
     H     9.3155122709   -7.5391583012   -0.2399342744
     H    11.6824656888   -8.2584993467   -0.1982347020
     H    12.8675661828   -4.1851817277    0.5225333102
