37
-1.4839733772715963e+03 frame 33   xyz file generated by TeraChem
     C     2.5316174848    1.0468230178    0.0275798612
     C     3.5871397262    0.3643950681    0.8153877716
     N     3.9877170324    0.6946801471    2.0382519001
     C     4.9571168303   -0.1749730839    2.3707249540
     C     5.1980010100   -1.0893933398    1.3559033099
     N     4.2896276621   -0.7109354917    0.3572491482
     C     4.2144944575   -1.3923989268   -0.8405025451
     C     5.0329305576   -2.4468480690   -1.0590017609
     C     5.9782323650   -2.8611637410   -0.0572154578
     C     6.0536311878   -2.1835428270    1.1363530631
     C     6.8331071227   -3.9930664290   -0.3374238806
     N     6.8695779616   -4.7327937896   -1.4061660352
     N     7.8468712827   -5.6791620641   -1.1998702016
     C     8.3438602941   -5.4551861305   -0.0172852208
     O     7.7419311085   -4.3975158114    0.5831691785
     C     9.4010788086   -6.1610999854    0.6756899785
     C    10.0206709402   -7.2634782665    0.0623888697
     C    11.0337323059   -7.9429921987    0.7084987769
     C    11.4550220149   -7.5389514106    1.9858919733
     C    10.8437308814   -6.4422616007    2.6041733807
     C     9.8243514309   -5.7635498862    1.9474858042
     O    12.4489630015   -8.2665197403    2.5332822076
     C    12.9062491174   -7.9044882739    3.8266626884
    Cl     5.7635628546   -0.1105828288    3.8885427459
     H     2.1141931148    1.8579632615    0.6268067335
     H     1.7209880408    0.3590424649   -0.2419117369
     H     2.9328801694    1.4696215535   -0.9014551504
     H     3.4836173065   -1.0339238862   -1.5548085053
     H     4.9751620971   -2.9834071056   -1.9986138776
     H     6.7539920491   -2.4681909287    1.9143974578
     H     9.6974076790   -7.5785026247   -0.9250814353
     H    11.5193679620   -8.7964404650    0.2450689007
     H    11.1528104536   -6.1115612973    3.5891774638
     H     9.3557709777   -4.9136399612    2.4342737089
     H    13.6959223764   -8.6152226196    4.0727470979
     H    12.1012948487   -7.9802779536    4.5665952566
     H    13.3146696464   -6.8873952562    3.8319534071
