36
-1.4088410245283267e+03 frame 84   xyz file generated by TeraChem
     C     2.1452924245    0.6310564162    0.3707037611
     C     3.3684383088    0.0891330164    1.0111187772
     N     3.9848710485    0.5973487658    2.0729925158
     C     5.0433105383   -0.1939811775    2.3156250174
     C     5.1261222473   -1.2359951999    1.4037625770
     N     4.0208935387   -1.0231496137    0.5677039399
     C     3.7488965129   -1.8665548207   -0.4906136980
     C     4.5623794833   -2.9207831528   -0.7288722663
     C     5.7045806102   -3.1683962119    0.1091677991
     C     5.9767429637   -2.3291109616    1.1635245115
     C     6.5488562410   -4.3057762767   -0.1807046441
     N     6.4276646999   -5.1838656675   -1.1325458407
     N     7.4742141977   -6.0657657350   -0.9917562603
     C     8.1657860432   -5.6683648290    0.0363064939
     O     7.6304058606   -4.5548831094    0.5956724341
     C     9.3621245884   -6.2509450991    0.6143514185
     C     9.9183237972   -7.4035302001    0.0430983975
     C    11.0598429829   -7.9672828892    0.5931726973
     C    11.6756317295   -7.4072854064    1.7203744703
     C    11.1136322466   -6.2528848596    2.2765042786
     C     9.9709487154   -5.6770968867    1.7369539769
     C    12.8905504381   -8.0448621077    2.3304712723
    Cl     6.1287966184    0.1020444339    3.6161586524
     H     1.8246088838    1.5177611948    0.9204886440
     H     1.3272620999   -0.0993664336    0.3785240931
     H     2.3285155941    0.9149647931   -0.6727272038
     H     2.8759314807   -1.6285073497   -1.0859579330
     H     4.3504721571   -3.5836181065   -1.5594237573
     H     6.8293332389   -2.4857367759    1.8156977744
     H     9.4510711631   -7.8471957140   -0.8308912773
     H    11.4858193243   -8.8599608477    0.1415796860
     H    11.5805787214   -5.7977620500    3.1465369249
     H     9.5522565676   -4.7806439487    2.1840230841
     H    13.5028862443   -8.5432097376    1.5724889143
     H    12.5990399378   -8.8053583020    3.0662841078
     H    13.5096515467   -7.3072214395    2.8500798361
