29
-1.2173173300076594e+03 frame 18   xyz file generated by TeraChem
     C     1.3532717540    0.0204259268    0.0484532763
     C     2.8359748304    0.0067717018    0.0932742519
     N     3.6232369823    1.0705349343    0.2112308130
     C     4.8867918841    0.6123830449    0.2074978170
     C     4.9329481136   -0.7682333676    0.0851957822
     N     3.5809208917   -1.1327383056    0.0138424267
     C     3.1993347994   -2.4530821499   -0.1125500788
     C     4.1468234136   -3.4168846237   -0.1692709607
     C     5.5424631611   -3.0783357882   -0.0990005338
     C     5.9239407440   -1.7643120511    0.0268183027
     C     6.5209847855   -4.1438035581   -0.1616109390
     N     6.3171063943   -5.4212101915   -0.2783390757
     N     7.5648766543   -6.0171088268   -0.2909884213
     C     8.4360901541   -5.0647374885   -0.1840075817
     O     7.8410399196   -3.8484597322   -0.0972321331
     C     9.9141381330   -5.1458643579   -0.1347239724
     C    10.4929691803   -4.6362453137    1.1871107541
    Cl     6.2425806449    1.6618747038    0.3435818486
     H     1.0101835440    1.0537810485    0.1242970843
     H     0.9173640176   -0.5524649056    0.8759541123
     H     0.9735271264   -0.4051641827   -0.8882444761
     H     2.1346384755   -2.6461699053   -0.1597091309
     H     3.8498059742   -4.4541117919   -0.2692967358
     H     6.9676247611   -1.4740839142    0.0837091211
     H    10.3239231536   -4.5661784343   -0.9710986620
     H    10.1814354235   -6.1931628549   -0.3008074341
     H    10.2271490084   -3.5882202044    1.3562592367
     H    11.5839769914   -4.7125807941    1.1678123332
     H    10.1219103427   -5.2265177336    2.0307930188
