49
-2.1924021076220238e+03 frame 74   xyz file generated by TeraChem
     C     0.8723983510   -4.2624237223   -0.3701692811
     C    -0.3196037043   -3.3549938960   -0.2719501690
     C    -0.4712398414   -2.4800992792    0.8115263584
     C    -1.5557309437   -1.6192743878    0.8941686882
     C    -2.5246551668   -1.6171833110   -0.1178211434
     C    -2.3879214951   -2.4887907744   -1.2051413510
     C    -1.2975185211   -3.3450554690   -1.2733512385
     C    -3.6590753618   -0.7183617143   -0.0220779837
     N    -3.9559135955    0.1312674827    0.9174124866
     N    -5.1299795724    0.7445298570    0.5441741215
     C    -5.4717785523    0.2256772416   -0.5970726909
     O    -4.5848299702   -0.7071339786   -1.0140574056
     C    -6.6081766589    0.4841708779   -1.4426141994
     C    -6.9461985475   -0.1196706733   -2.6412106184
     C    -8.1507915667    0.4973083680   -3.0262998113
     N    -8.5188125979    1.4137391829   -2.1217480970
     N    -7.5860945468    1.3935796404   -1.1706731724
     C    -7.6767978615    2.3341410109   -0.0648203821
     C    -6.8472575094    3.5763331225   -0.2821633388
     C    -5.9041163820    3.9970914583    0.6549906212
     C    -5.1811452796    5.1616324326    0.4280842540
     C    -5.4453760687    5.8474730715   -0.7525210035
     N    -6.3255580504    5.4784639277   -1.6629319839
     C    -7.0149024694    4.3595668924   -1.4236767416
    Cl    -4.5594292722    7.3192625382   -1.0878576497
     C    -8.9700186531    0.2424303655   -4.2164007736
     C   -10.0850837223    1.0414855384   -4.5017267493
     C   -10.8670809856    0.8028674185   -5.6245724804
     C   -10.5299959646   -0.2468095808   -6.4745672870
     C    -9.4281717632   -1.0557911350   -6.2171386891
     C    -8.6556179241   -0.8061264224   -5.0888929937
    Cl   -11.5062660952   -0.5534766773   -7.8875669625
     H     1.2776557757   -4.4980297944    0.6185438175
     H     1.6745047117   -3.7859867089   -0.9485588558
     H     0.6191148234   -5.1991197360   -0.8765944910
     H     0.2741138042   -2.4776225012    1.6031151681
     H    -1.6625773883   -0.9468314960    1.7400762740
     H    -3.1359366846   -2.4981406150   -1.9920707615
     H    -1.2027074720   -4.0217210870   -2.1191467320
     H    -6.3890857845   -0.8960788017   -3.1450907503
     H    -7.3665473112    1.8237984770    0.8487422239
     H    -8.7374278895    2.5844375932    0.0195837735
     H    -5.7300837125    3.4135238314    1.5542411677
     H    -4.4392766096    5.5204207058    1.1324957527
     H    -7.7359430188    4.0722308359   -2.1866665905
     H   -10.3402753958    1.8596763074   -3.8355835763
     H   -11.7287515731    1.4268141769   -5.8394598991
     H    -9.1780261836   -1.8720065889   -6.8872370174
     H    -7.8006812869   -1.4454897622   -4.8895734969
