54
-1.2104490103349553e+03 frame 56   xyz file generated by TeraChem
     C     2.6877201693   -1.0429491294   -0.6013874214
     C     1.2093572580   -0.8060578004   -0.4613183727
     C     0.2725880647   -1.6697618679   -1.0318089424
     C    -1.0968778916   -1.4422072045   -0.9195008552
     C    -1.5741709809   -0.3368714833   -0.2081375570
     C    -0.6425573737    0.5309384409    0.3822511379
     C     0.7190978445    0.2992743285    0.2461434835
     N    -2.9596174208   -0.1129096938   -0.0535706163
     C    -3.8574254917   -1.2107443058   -0.0847274053
     C    -4.8035964850   -1.2902526638   -1.1119503721
     C    -5.6911866104   -2.3517893465   -1.1907682177
     C    -5.6569201104   -3.3867059182   -0.2463502936
     C    -4.7084829092   -3.3164472216    0.8135617955
     C    -3.8099330470   -2.2139579787    0.9085819065
     C    -2.9057608282   -2.1584537557    2.0203958330
     C    -2.8760760289   -3.1446258370    2.9559107249
     C    -3.7476466796   -4.2794072127    2.8740499074
     C    -4.6729305813   -4.3497841876    1.7946166116
     C    -5.5672865008   -5.4550640276    1.7016296177
     C    -6.5013352042   -5.5006500235    0.6143569555
     C    -6.5458952693   -4.5084563536   -0.3140914566
     C    -5.5105872809   -6.4615956456    2.6756938074
     C    -4.5987526705   -6.3867084124    3.7241611834
     C    -3.7261440751   -5.3077526201    3.8262316690
     C    -3.4997415166    1.1912813789   -0.1275633640
     C    -2.9473299250    2.1736950965   -0.9590343411
     C    -3.5077842045    3.4452719287   -1.0115114582
     C    -4.6380916903    3.7813217428   -0.2592189062
     C    -5.1903798925    2.7866470174    0.5542990594
     C    -4.6312413316    1.5166247712    0.6311142541
     C    -5.2231663277    5.1656092606   -0.3052302546
     H     2.8912720316   -2.0091968903   -1.0729411435
     H     3.1891891103   -1.0287048593    0.3733916279
     H     3.1605768960   -0.2661706045   -1.2154163899
     H     0.6176244219   -2.5383190811   -1.5889973028
     H    -1.7992804786   -2.1277371908   -1.3848494071
     H    -0.9936903868    1.3854633468    0.9534729632
     H     1.4198926262    0.9872882895    0.7151484491
     H    -4.8249862283   -0.5028418539   -1.8600141987
     H    -6.4117085934   -2.3981094575   -2.0037160617
     H    -2.2437318058   -1.3035344319    2.1075010371
     H    -2.1875355878   -3.0828217258    3.7954186833
     H    -7.1793660758   -6.3484695296    0.5514455774
     H    -7.2610250533   -4.5484655248   -1.1324307619
     H    -6.1935961586   -7.3046218119    2.6028696358
     H    -4.5698976453   -7.1760684477    4.4705394975
     H    -3.0181076948   -5.2502602239    4.6495183410
     H    -2.0811089633    1.9374763129   -1.5699980967
     H    -3.0635091754    4.1906728204   -1.6682409159
     H    -6.0715135273    3.0126146751    1.1514218279
     H    -5.0722533375    0.7650494876    1.2801942255
     H    -5.0839937259    5.6259600275   -1.2890800818
     H    -4.7444120878    5.8245279859    0.4311082355
     H    -6.2946021137    5.1524443741   -0.0808298998
