63
-1.5854185576411942e+03 frame 65   xyz file generated by TeraChem
     C    -0.4520159839   -3.4135584335    0.3202247384
     N    -0.0823620489   -2.0232541494    0.1945580690
     C    -0.9564400346   -0.9667299711    0.0474896092
     C    -2.3479407766   -0.9736828257   -0.0685484021
     C    -2.9886589115    0.2461915460   -0.2293365056
     C    -2.2801480636    1.4654398991   -0.2634027753
     C    -0.8878982063    1.4581694753   -0.1567218624
     C    -0.2225632264    0.2460450598    0.0084117579
     C     1.1676270389   -0.1155431078    0.1525904863
     C     1.2015986884   -1.5275542187    0.2762472835
     C     2.4054485109   -2.2101939576    0.4601740064
     C     3.5723201121   -1.4607336954    0.5026177991
     C     3.5649557217   -0.0572489739    0.3611395712
     C     2.3520080572    0.6154537772    0.1998306488
     C     4.8362035251    0.7045122314    0.4589706132
     C     5.3128982228    1.6750233235   -0.3670183093
     C     4.8272102157    2.1504166147   -1.6533371845
     C     5.2960704810    3.3926731044   -2.1083971558
     C     4.9118994723    3.9217790438   -3.3342293949
     C     4.0532289513    3.1877255604   -4.1583933180
     C     3.5979187163    1.9276050227   -3.7370645184
     C     3.9741520285    1.4224230220   -2.5084427334
     O     3.6216382443    3.5972124911   -5.3691763973
     C     4.0434105197    4.8706720018   -5.8300346984
     C     5.6354793388    0.4036204252    1.6074751902
     N     6.2714281035    0.1342350732    2.5453398269
     C    -3.0108063931    2.7403589229   -0.4778536339
     C    -2.9040027024    3.9116937771    0.2068963802
     C    -2.1785301868    4.2398926328    1.4243090394
     C    -1.9560204470    5.5974122068    1.7031428633
     C    -1.2899150051    6.0175517555    2.8481068721
     C    -0.8469192845    5.0640904653    3.7702150843
     C    -1.0900903924    3.7019465633    3.5278806387
     C    -1.7381311883    3.2984990747    2.3777887672
     O    -0.1933405186    5.3484657034    4.9149952181
     C     0.0796890034    6.7095760695    5.2056551644
     C    -3.9152259901    2.7403841526   -1.5873294673
     N    -4.6512989082    2.7148118760   -2.4895928199
     H    -1.3915665471   -3.5877157554   -0.2076228084
     H    -0.5714461431   -3.7054131140    1.3699236706
     H     0.3168680028   -4.0393607758   -0.1390259138
     H    -2.9202971909   -1.8953862959   -0.0329540497
     H    -4.0713889035    0.2632843713   -0.3251335974
     H    -0.3315371449    2.3903073885   -0.2058716395
     H     2.4380844078   -3.2893240376    0.5744176044
     H     4.5212835455   -1.9706588002    0.6480593860
     H     2.3358444516    1.6989843280    0.1185739074
     H     6.2148204675    2.1810803562   -0.0243476871
     H     5.9767119420    3.9634804668   -1.4808172337
     H     5.2901384150    4.8905794442   -3.6408424000
     H     2.9493923592    1.3611997014   -4.3990007691
     H     3.6182738310    0.4420366815   -2.2114525847
     H     3.5731986851    5.0060395299   -6.8047005039
     H     5.1331879474    4.9111557062   -5.9411989480
     H     3.7154190055    5.6661932171   -5.1510999343
     H    -3.4575565182    4.7509952098   -0.2128898187
     H    -2.3085641734    6.3466640553    0.9978844834
     H    -1.1305375403    7.0770100464    3.0149958340
     H    -0.7599286030    2.9765075302    4.2657485715
     H    -1.9220874424    2.2413424535    2.2213531827
     H     0.6142553603    6.7098778819    6.1561952377
     H    -0.8464759684    7.2871994127    5.3060653013
     H     0.7098769617    7.1608995638    4.4306112124
