33
-1.4687132026086588e+03 frame 36   xyz file generated by TeraChem
     C     1.7085847487    0.5339115107   -0.0502638414
     C     3.1842831740    0.3822492096   -0.0430363988
     N     4.0711862626    1.3717847666   -0.0355490752
     C     5.2856170421    0.7965602733   -0.0309392720
     C     5.1983133736   -0.5878036789   -0.0354792071
     N     3.8164523633   -0.8259149350   -0.0433455183
     C     3.3098973703   -2.1100854688   -0.0498656034
     C     4.1612485444   -3.1612295640   -0.0485533825
     C     5.5839977156   -2.9519557646   -0.0404973096
     C     6.0902542530   -1.6741595378   -0.0341043006
     C     6.4551617522   -4.1054297315   -0.0391518880
     N     6.1305798045   -5.3658851713   -0.0434831264
     N     7.3067051800   -6.0745524668   -0.0394165770
     C     8.2721487013   -5.2016370927   -0.0329012944
     O     7.7975706215   -3.9335687886   -0.0324198254
     C     9.6988141264   -5.4719070162   -0.0265039453
     C    10.1361787288   -6.8064685264   -0.0288759975
     C    11.4885079046   -7.1116920566   -0.0226031141
     C    12.4353574452   -6.0856966772   -0.0136800376
     C    12.0274789028   -4.7561411071   -0.0112278982
     C    10.6721143426   -4.4673790050   -0.0176663716
     F    10.2942770681   -3.1816852137   -0.0154306916
    Cl     6.7367078823    1.7187961308   -0.0207215718
     H     1.4659740478    1.5979522177   -0.0482793909
     H     1.2513999327    0.0692802503    0.8316432307
     H     1.2606114352    0.0747034395   -0.9397048209
     H     2.2309294593   -2.2031412902   -0.0558415307
     H     3.7648545151   -4.1697620944   -0.0536949572
     H     7.1579118504   -1.4808751181   -0.0280300906
     H     9.3906791744   -7.5953698316   -0.0357899602
     H    11.8061636565   -8.1497015831   -0.0246200510
     H    13.4960089963   -6.3192866327   -0.0086708620
     H    12.7395993242   -3.9371502669   -0.0043952320
