122
-3.3069309716321386e+03 frame 119   xyz file generated by TeraChem
     C     3.2356378976   -0.1464150182   -0.8057921058
     C     2.0150377390   -0.3707843484   -1.6951607055
     N     1.4343090088    0.8537964778   -2.2228589984
     C     0.3200011346    1.5097066926   -1.7437478062
     C    -0.5039699580    1.1921213156   -0.6565942325
     C    -1.5774509902    2.0218973703   -0.3908840117
     C    -1.8598654428    3.1657813339   -1.1792553120
     C    -1.0236942921    3.4658625854   -2.2644278748
     C     0.0643367611    2.6488223299   -2.5474238433
     C     1.0939419662    2.6723273844   -3.5604305201
     C     1.9164093043    1.5413851133   -3.3154592759
     C     3.0177551135    1.2545678757   -4.1259558417
     C     3.2804293500    2.1169859758   -5.1778200757
     C     2.4801073537    3.2531014636   -5.4456112259
     C     1.3772526578    3.5216884954   -4.6207335048
     C     2.8423628977    4.0987720009   -6.5709041134
     C     2.2092269093    5.2046407294   -7.0089664591
     C     2.7291034995    5.9415098268   -8.1691467163
     O     3.7279462061    5.6481209680   -8.8000417569
     O     2.0272045445    7.0299417359   -8.5456403472
     C    -2.9821509227    4.0470842292   -0.9187316509
     C    -3.8584319544    3.9813812472    0.1103201605
     C    -4.9506397697    4.9022917358    0.2834576223
     C    -5.8253664363    4.8647163467    1.3374986871
     C    -6.9007549440    5.7934065041    1.4486503517
     C    -7.8372448013    5.7699611935    2.5367672088
     C    -9.0172382292    6.5977271545    2.5096671377
     O    -9.3368822137    7.3792863374    1.6123882959
     N    -9.9071865961    6.5026832416    3.6112057654
     C   -11.1024811075    7.3553968789    3.5171676179
     C   -10.8532952588    8.7585291960    4.0435567145
     C    -9.6929137043    5.7391667697    4.7219404746
     S   -10.7511129889    5.7753339546    6.0420321718
     N    -8.5819106950    4.9459665117    4.7159418759
     C    -7.6108207951    4.9230272475    3.6834956755
     O    -6.6317433950    4.1960978548    3.8598326740
     C    -8.2835203907    4.0784595001    5.8660436872
     C    -7.3920788483    4.7630789994    6.8883082443
     C    -6.9750713713    6.7380122595    0.3865932069
     C    -6.0673496042    6.7425061193   -0.6417129422
     O    -5.0667164602    5.8339905620   -0.6844824984
     C    -6.0180079249    7.6334128136   -1.7736520725
     C    -6.9062099519    8.6282775901   -2.0021892884
     C    -6.9296337175    9.5429672977   -3.1265942810
     C    -5.9807921672    9.5002720335   -4.1796689142
     C    -6.0295064441   10.3748288176   -5.2487576416
     C    -7.0587314710   11.3249192451   -5.2761845675
     C    -8.0187588635   11.3938907990   -4.2354219895
     C    -7.9494020532   10.5053432876   -3.1697673933
     C    -8.9216557288   12.4663319164   -4.5835963503
     C   -10.0490342764   13.0056901765   -3.9800206345
     C   -10.7235036972   14.0675731937   -4.6014072439
     C   -11.9104655265   14.6836517350   -4.0316253900
     C   -12.5438249592   14.3521194641   -2.8896260598
     C   -13.7442045033   15.0895400570   -2.4725292643
     O   -14.2372090348   16.0291720021   -3.0691753080
     O   -14.3298910659   14.6712921153   -1.3321669618
     C   -10.2388283677   14.5647194848   -5.8346050833
     C    -9.1171682478   14.0418286444   -6.4570024225
     C    -8.4587389739   12.9869453106   -5.8203171742
     N    -7.3392583830   12.2889434428   -6.2205454491
     C    -6.6178623628   12.5279420576   -7.4594933938
     C    -5.6645236510   13.7278990308   -7.4074302929
     C    -4.5558805695   13.5138851021   -6.3799986068
     C    -5.0698811332   13.9998906383   -8.7944468391
     C    -6.0714761863   14.4490383991   -9.8536919055
     C     2.9413133831    0.5974464586    0.4930766217
     C     4.1824406021    0.7571687501    1.3630303401
     H     4.0069598638    0.3910556068   -1.3737476416
     H     3.6539503168   -1.1352560502   -0.5743994594
     H     1.2309531264   -0.8991843332   -1.1444996390
     H     2.2800098250   -1.0021011300   -2.5502022111
     H    -0.3127921973    0.3241185112   -0.0336242006
     H    -2.2228337971    1.7797486526    0.4481033598
     H    -1.2308375522    4.3394850152   -2.8782184313
     H     3.6510919295    0.3924351799   -3.9420182784
     H     4.1326465483    1.9189245762   -5.8233391883
     H     0.7460239032    4.3867036635   -4.8034324623
     H     3.7329735816    3.7974023806   -7.1226860929
     H     1.3101124157    5.5799907949   -6.5259485722
     H     1.2562056069    7.1626001142   -7.9703143246
     H    -3.1134764893    4.8492598516   -1.6437553007
     H    -3.7826313327    3.2200459349    0.8815019383
     H    -5.6819874073    4.1047173517    2.0903098658
     H   -11.8965219711    6.8598091936    4.0737651694
     H   -11.3714215622    7.3852390800    2.4618506450
     H   -10.5737809721    8.7366182023    5.1013570711
     H   -11.7651309779    9.3565333730    3.9413149568
     H   -10.0566049942    9.2470899169    3.4748206344
     H    -7.7953747913    3.1922293787    5.4618747049
     H    -9.2368293999    3.7897060407    6.3060209945
     H    -6.4301315402    5.0331685063    6.4429885980
     H    -7.2049115090    4.0832776565    7.7263420892
     H    -7.8691625868    5.6668472138    7.2797183102
     H    -7.7648941838    7.4725667187    0.3853942090
     H    -5.1978626777    7.4396363405   -2.4600844948
     H    -7.7099735571    8.7815274826   -1.2828214938
     H    -5.1869613598    8.7599396470   -4.1540160892
     H    -5.2857503362   10.3214596964   -6.0374158973
     H    -8.6836993439   10.5487608212   -2.3687123739
     H   -10.4009878616   12.6037109723   -3.0340100647
     H   -12.3363682148   15.5096520135   -4.6016596072
     H   -12.1969061349   13.5401496646   -2.2548578978
     H   -13.8506135355   13.9149616921   -0.9563975004
     H   -10.7700277868   15.3871403610   -6.3073394880
     H    -8.7675517218   14.4433146699   -7.4028932067
     H    -7.3655429439   12.6589438795   -8.2484448966
     H    -6.0581582680   11.6185511356   -7.7008705427
     H    -6.2501736084   14.6108056839   -7.1115282195
     H    -3.9421002393   12.6453355025   -6.6506119135
     H    -4.9547419938   13.3470870102   -5.3735058250
     H    -3.8988489685   14.3896732992   -6.3382215038
     H    -4.5388839363   13.0997949106   -9.1377809552
     H    -4.3027990277   14.7771813629   -8.6805418078
     H    -6.7887791764   13.6626909057  -10.1137599636
     H    -5.5552558391   14.7334763134  -10.7772168489
     H    -6.6424161577   15.3204012495   -9.5098538710
     H     2.1658516893    0.0544297566    1.0511605378
     H     2.5246563279    1.5875894641    0.2665543827
     H     4.6056266399   -0.2190035648    1.6289532247
     H     3.9517635179    1.2874365986    2.2934688000
     H     4.9608952869    1.3244597408    0.8386735709
