62
-1.8739960731784749e+03 frame 56   xyz file generated by TeraChem
    Cl    -1.9203897486    0.3894076321   -0.1052631706
     C    -0.1833924156    0.3654156216    0.0577850662
     C     0.4028195461    0.8902784152    1.2048030454
     C     1.7875794370    0.8683483882    1.3271500440
     C     2.5925313451    0.3302837476    0.3161859939
     C     1.9737604823   -0.1919407784   -0.8272794092
     C     0.5916389607   -0.1784849953   -0.9625635205
     C     4.0538870921    0.3140099439    0.4459712168
     C     4.8590780370    0.9305739762    1.4205867876
     C     6.1563304432    0.6030030811    1.0661478800
     N     6.0761453827   -0.1570163390   -0.0635641235
     N     4.8119588681   -0.3420631749   -0.4421760120
     C     7.1347236038   -0.7702442938   -0.8457357236
     C     7.6226195424   -2.0936980633   -0.3021565312
     C     6.8614432468   -2.8756784827    0.5608129704
     C     7.3401051955   -4.1053050394    1.0159687753
     C     8.5859524319   -4.5977116047    0.6193489640
     C     9.3369473970   -3.8032009429   -0.2605693506
     C     8.8701126862   -2.5746238252   -0.7102893404
     C     9.1446094161   -5.9379664560    1.1012204039
     C     8.1951503476   -6.6486054120    2.0693535413
     C     9.3774889056   -6.8558821759   -0.1095940099
     C    10.4809999775   -5.7026761262    1.8245713599
     C     7.3693351350    1.0029929801    1.7358394517
     N     7.4922213900    1.9424598248    2.6257015531
     N     8.8116861137    1.9416861552    3.0121652642
     C     9.4076020616    1.0088749667    2.3290398866
     O     8.5413659606    0.3715810974    1.4995020567
     C    10.7994219564    0.5996793391    2.3596580523
     C    11.7189650364    1.3401507428    3.1119126164
     C    13.0517273342    0.9535168589    3.1529566287
     C    13.5029699891   -0.1714747307    2.4534725377
     C    12.5712494476   -0.9037585163    1.7064178044
     C    11.2362174866   -0.5299317021    1.6550030969
     C    14.9442337104   -0.5907432161    2.5001444275
     H    -0.2136163028    1.3081741147    1.9942467000
     H     2.2391731931    1.2734940109    2.2281800897
     H     2.5851178469   -0.6094334304   -1.6211469810
     H     0.1204835510   -0.5832384456   -1.8526683274
     H     4.5644247640    1.5372250703    2.2644515827
     H     7.9636456805   -0.0623286717   -0.9264347845
     H     6.7131178466   -0.8967227118   -1.8472955499
     H     5.8846891458   -2.5298358883    0.8895004048
     H     6.7179347348   -4.6795289893    1.6948419431
     H    10.3120293194   -4.1447429969   -0.5988021359
     H     9.4821876349   -1.9810799522   -1.3869716432
     H     7.2293085747   -6.8727857221    1.6021510458
     H     8.0127727800   -6.0506359346    2.9695368743
     H     8.6417237489   -7.5984333310    2.3840362802
     H     8.4405077159   -7.0382026657   -0.6484251582
     H     9.7742055731   -7.8232530103    0.2219017281
     H    10.0959990509   -6.4232166760   -0.8143427208
     H    10.3433828679   -5.0535922517    2.6969477628
     H    11.2222526099   -5.2360102111    1.1669825854
     H    10.8936556337   -6.6580697076    2.1707508603
     H    11.3836101822    2.2167252409    3.6581082398
     H    13.7583042642    1.5371457253    3.7379446665
     H    12.8985674848   -1.7833626211    1.1568033989
     H    10.5307865109   -1.1185989094    1.0752856673
     H    15.5405593636    0.0963595428    3.1069990992
     H    15.3779751188   -0.6222038720    1.4937948526
     H    15.0464769672   -1.5964840714    2.9246991600
