59
-1.8472878069302747e+03 frame 41   xyz file generated by TeraChem
    Cl    -1.5012552543    0.7798417610   -1.6016074510
     C     0.1701897826    0.6512921359   -1.1179131150
     C     0.5079555433    0.8056744039    0.2226616306
     C     1.8420524302    0.7012670956    0.5991912142
     C     2.8414027651    0.4473253085   -0.3474007284
     C     2.4715829054    0.2967154833   -1.6903594031
     C     1.1423635258    0.3958947237   -2.0808565510
     C     4.2469620305    0.3385388819    0.0575862728
     C     4.8324855866    0.6524673819    1.2965283989
     C     6.1799141538    0.3813000879    1.1291850322
     N     6.3387140670   -0.0596236460   -0.1518612674
     N     5.1769976108   -0.0963515980   -0.8029081880
     C     7.5192073936   -0.6136893190   -0.8067373309
     C     7.8150407459   -2.0347372995   -0.3868251429
     C     6.8318489055   -3.0221747539   -0.4528112946
     C     7.1165744066   -4.3359696581   -0.0890129200
     C     8.3917815510   -4.7135096812    0.3480136992
     C     9.3707772021   -3.7125363781    0.4054262825
     C     9.0907671121   -2.3980235238    0.0473517880
     C     8.7390984161   -6.1447633179    0.7622650654
     C     7.5587903319   -7.1035609010    0.5853634299
     C     9.9080923772   -6.6579987661   -0.0941116693
     C     9.1537625183   -6.1546770684    2.2429154495
     C     7.2216977353    0.5545542281    2.1105212006
     N     7.0599648406    0.7557376930    3.3854674779
     N     8.3169613666    0.9097181177    3.9178431951
     C     9.1605993290    0.7876118185    2.9379387920
     O     8.5273803957    0.5615771871    1.7597731435
     C    10.6113587578    0.8655650710    2.9706684839
     C    11.2606903212    1.0659993053    4.1949324075
     C    12.6460974203    1.1425680549    4.2352942367
     C    13.4009237286    1.0194118756    3.0684446989
     C    12.7331244514    0.8208625798    1.8675104340
     C    11.3519199464    0.7434703605    1.7887965737
    Br    13.7705637613    0.6311174681    0.2246145783
     H    -0.2606253829    1.0008532613    0.9636196056
     H     2.1001039240    0.8127152504    1.6483426418
     H     3.2359614026    0.1034790286   -2.4366114690
     H     0.8638570762    0.2797012339   -3.1234226532
     H     4.3708341198    1.0539989565    2.1869584360
     H     8.3726740881    0.0369022112   -0.6074441967
     H     7.2961294045   -0.5573477160   -1.8754521582
     H     5.8306244829   -2.7649469489   -0.7911636999
     H     6.3215132429   -5.0719291398   -0.1544220268
     H    10.3751865374   -3.9575661347    0.7411626546
     H     9.8771677749   -1.6487229792    0.1031666267
     H     7.2287852246   -7.1527989099   -0.4587813560
     H     6.7016552800   -6.8143219762    1.2042119439
     H     7.8610852302   -8.1125001274    0.8876276856
     H     9.6441020562   -6.6571395566   -1.1579658125
     H    10.1595484290   -7.6856148085    0.1945053530
     H    10.8059274414   -6.0443424269    0.0342343464
     H     8.3318736616   -5.8103841420    2.8813030375
     H    10.0186893577   -5.5074035101    2.4237930182
     H     9.4232060057   -7.1721115740    2.5511608458
     H    10.6747788079    1.1583530956    5.1035912655
     H    13.1520370926    1.2973034362    5.1835541922
     H    14.4838929241    1.0752920735    3.0988264170
     H    10.8554429584    0.5925478056    0.8367058397
