46
-2.1656912172028324e+03 frame 49   xyz file generated by TeraChem
    Cl    -1.7994728838   -0.7543551207   -0.6859237613
     C    -0.0889859036   -0.5190431970   -0.4374710984
     C     0.3480881825    0.2015475793    0.6689798067
     C     1.7127335058    0.3850067668    0.8600594068
     C     2.6444705227   -0.1439647454   -0.0405978013
     C     2.1751901663   -0.8647821211   -1.1464321111
     C     0.8147606749   -1.0553867144   -1.3505145252
     C     4.0838801085    0.0520421171    0.1668345764
     C     4.7417325570    0.6915107099    1.2335501177
     C     6.0882695900    0.5914271402    0.9311389354
     N     6.1762572603   -0.0839881030   -0.2513796912
     N     4.9721914202   -0.4085390692   -0.7227655249
     C     7.3459056696   -0.4424004268   -1.0312382185
     C     7.8422510405    0.6634130691   -1.9310189585
     C     9.1607839646    0.6550279658   -2.3917747927
     C     9.5990070214    1.6557075263   -3.2470806196
     C     8.6721644870    2.6329649772   -3.6010891236
     N     7.4229975366    2.6725076790   -3.1868186288
     C     7.0173629035    1.6975244051   -2.3657359511
    Cl     9.1740303089    3.9191336325   -4.6757956794
     C     7.1890885014    1.0857672793    1.7194523642
     N     7.1221599463    1.5505593550    2.9323918890
     N     8.3960992431    1.9322865751    3.2735871829
     C     9.1560356528    1.6717249378    2.2530054242
     O     8.4484223313    1.1313144354    1.2286009322
     C    10.5860684122    1.8863229017    2.1086979871
     C    11.3218457148    2.3517887794    3.2054731284
     C    12.6870325910    2.5664118352    3.0777080410
     C    13.3352380538    2.3248085971    1.8662944914
     C    12.5829826361    1.8657863899    0.7932167249
     C    11.2197479370    1.6385525762    0.8854211411
    Br    13.4707818029    1.5400487783   -0.9158033919
     H    -0.3675711793    0.6151588344    1.3722237378
     H     2.0474932574    0.9516645972    1.7239071131
     H     2.8860591311   -1.2804594151   -1.8535704760
     H     0.4586828925   -1.6153008325   -2.2093752709
     H     4.3229296866    1.1628739206    2.1107199752
     H     7.0466186279   -1.3095137354   -1.6271878327
     H     8.1384468824   -0.7663832450   -0.3530811852
     H     9.8473451830   -0.1302280706   -2.0831904972
     H    10.6165284573    1.6833354196   -3.6204821461
     H     5.9803578602    1.7528172036   -2.0429973159
     H    10.8177268711    2.5390157780    4.1479929167
     H    13.2607106811    2.9254887963    3.9268340862
     H    14.4015917056    2.4922180854    1.7621975613
     H    10.6570791053    1.2873215900    0.0283614809
