46
-2.1531290562249487e+03 frame 62   xyz file generated by TeraChem
    Cl    -1.8286360444   -0.1704566064   -1.1514023790
     C    -0.1251800521   -0.0510073155   -0.7958631185
     C     0.2950456638    0.7147523913    0.2865826164
     C     1.6543831257    0.8056315519    0.5634114406
     C     2.5976275194    0.1395086336   -0.2276019969
     C     2.1450770461   -0.6239370498   -1.3117782972
     C     0.7903716490   -0.7232442302   -1.6007464000
     C     4.0314830109    0.2381645525    0.0683292635
     C     4.6721082798    0.9335237250    1.1103084830
     C     6.0216612408    0.6950316506    0.9195500871
     N     6.1274497833   -0.1082632452   -0.1780289858
     N     4.9320958891   -0.3854820120   -0.7011912721
     C     7.3053319377   -0.6610361411   -0.8206900116
     C     7.9423189842    0.2620767276   -1.8295347170
     C     7.2161174291    1.1925649458   -2.5743526231
     C     7.8704638527    1.9778722451   -3.5139462567
     C     9.2399897412    1.7802851955   -3.6651908866
     N     9.9558924521    0.9089274258   -2.9830956534
     C     9.3095482425    0.1661710759   -2.0798614086
    Cl    10.1071045268    2.7468308540   -4.8372310004
     C     7.1074455902    1.1822702455    1.7342398528
     N     7.0035148812    1.7151037108    2.9152665961
     N     8.2746666577    2.0718113408    3.2941159774
     C     9.0716136611    1.7282510893    2.3261458123
     O     8.3881618719    1.1561667673    1.2997036626
     C    10.5131012308    1.8850747362    2.2376748622
     C    11.2143394272    2.3652754569    3.3524758667
     C    12.5916172324    2.5276170731    3.2840796312
     C    13.2778105915    2.2139504511    2.1101472518
     C    12.5808201203    1.7383397103    1.0008318909
     C    11.2016076364    1.5728482231    1.0595537816
     H    -0.4293137546    1.2344122646    0.9055098928
     H     1.9759922472    1.4081291939    1.4078713253
     H     2.8646628834   -1.1456426115   -1.9348692592
     H     0.4478941694   -1.3168709569   -2.4423621604
     H     4.2406693289    1.5316923548    1.8995980702
     H     6.9650269405   -1.5787844989   -1.3092099873
     H     8.0293010530   -0.9458673642   -0.0536836356
     H     6.1459894608    1.3066472072   -2.4248147974
     H     7.3409784562    2.7138549522   -4.1083524251
     H     9.9206126141   -0.5446683391   -1.5250986238
     H    10.6732543769    2.6041996889    4.2629333868
     H    13.1327172736    2.8984690521    4.1499047402
     H    14.3556822895    2.3415115181    2.0607275850
     H    13.1112048677    1.4971501878    0.0840627029
     H    10.6598107658    1.2111642988    0.1914646286
