47
-1.6776627812089600e+03 frame 45   xyz file generated by TeraChem
    Cl    -1.9083052090    0.4210422476   -0.1672862552
     C    -0.1741888152    0.3562766210    0.0136867028
     C     0.4071524976    0.8061857393    1.1945355698
     C     1.7895474568    0.7515863185    1.3313716933
     C     2.5972520615    0.2541376567    0.3019352450
     C     1.9834839394   -0.1919449296   -0.8759349959
     C     0.6036895982   -0.1445852844   -1.0263688910
     C     4.0560822843    0.2000881369    0.4493169667
     C     4.8546694950    0.6830010906    1.5009865409
     C     6.1532717511    0.3802839692    1.1278408477
     N     6.0800499532   -0.2386577258   -0.0854727937
     N     4.8189522165   -0.3589586030   -0.4992742806
     C     7.1352573200   -0.8116737207   -0.9024879565
     C     7.6029831066   -2.1720198615   -0.4349317156
     C     6.7777588555   -3.0181301355    0.3072496557
     C     7.2257834849   -4.2823962953    0.6859487557
     C     8.4984309728   -4.7152538505    0.3204353443
     C     9.3241380691   -3.8758511486   -0.4258029703
     C     8.8790470995   -2.6101935842   -0.7985159674
     C     7.3540729753    0.6779956215    1.8678525650
     N     7.4245268852    1.3224350553    2.9954600364
     N     8.7545292300    1.3682481841    3.3350892702
     C     9.4090536517    0.7524826823    2.3956871731
     O     8.5722877427    0.2877325398    1.4313986029
     C    10.8396079772    0.5284845643    2.2792013967
     C    11.6942694805    1.0676600940    3.2507307590
     C    13.0641834527    0.8625851901    3.1553587941
     C    13.5911540453    0.1227183909    2.0959124956
     C    12.7416955218   -0.4142917797    1.1302335165
     C    11.3683823776   -0.2150796816    1.2172285366
     H    -0.2113219264    1.1924992957    1.9983309084
     H     2.2367688783    1.1008829528    2.2575044282
     H     2.5968532335   -0.5779301033   -1.6840111142
     H     0.1365362603   -0.4913783912   -1.9426484139
     H     4.5570242775    1.1933728607    2.4053618687
     H     7.9711011565   -0.1092343396   -0.9432643593
     H     6.7103729880   -0.8765538156   -1.9084543563
     H     5.7807043830   -2.6915638171    0.5912943822
     H     6.5753198909   -4.9306029417    1.2672791281
     H     8.8465114756   -5.7009223994    0.6173799004
     H    10.3198954035   -4.2031900081   -0.7131065304
     H     9.5269781493   -1.9560465220   -1.3788339677
     H    11.2759943613    1.6437049177    4.0704479787
     H    13.7242598223    1.2819118780    3.9093160132
     H    14.6637599801   -0.0351148659    2.0242575103
     H    13.1488586094   -0.9925849494    0.3057166008
     H    10.7072622733   -0.6403800010    0.4686809069
