49
-1.6248974800521273e+03 frame 33   xyz file generated by TeraChem
     O     1.1641484147   -2.6658797414   -0.0845995413
     C     0.8317728886   -1.4842918080   -0.0640367507
     C     1.6839631238   -0.2933945038   -0.0353335734
     C     3.0613216440   -0.2151440696   -0.0259163926
     C     3.9517687732   -1.2956537514   -0.0479482187
     C     5.3462589155   -1.2018607502   -0.0414148930
     C     6.1005667713   -2.4219820596   -0.0670379759
     C     7.4561146491   -2.5326260959   -0.0701966941
     S     8.5143462547   -1.1474985798   -0.0274544310
     C     7.4037335586    0.1963452022    0.0018899428
     C     6.0524223259    0.0469228642   -0.0125233376
     C     8.0548840410    1.5208456104    0.0461333164
     C     7.5034344223    2.5423859855    0.8336035046
     C     8.1003930364    3.7971680061    0.8766790272
     C     9.2576115881    4.0497474356    0.1412474603
     C     9.8156921248    3.0392061205   -0.6391818244
     C     9.2218534169    1.7822237979   -0.6864544867
     C     8.1496058461   -3.8342983648   -0.1131502506
     C     7.6214398975   -4.8801463100   -0.8849174211
     C     8.2598791807   -6.1141088503   -0.9284608276
     C     9.4364282238   -6.3218685560   -0.2096870004
     C     9.9714374788   -5.2871477954    0.5550407331
     C     9.3357975838   -4.0509277767    0.6033504104
     C     0.8272534587    0.8969549630   -0.0163012944
     O     1.1794972821    2.0712799722    0.0072430007
     C    -0.5834662264    0.4081289784   -0.0336350765
     C    -0.5798614744   -0.9899505997   -0.0618267305
     C    -1.7646418335   -1.7107380984   -0.0825718222
     C    -2.9644529749   -0.9949112560   -0.0747750319
     C    -2.9677651333    0.4038175799   -0.0468539219
     C    -1.7710077574    1.1244478380   -0.0260182323
     H     3.4529223558    0.8024181652    0.0002331103
     H     3.5199340477   -2.2921460608   -0.0739619132
     H     5.5301973381   -3.3479222409   -0.0649666372
     H     5.4720178639    0.9643184918   -0.0236511079
     H     6.6180021895    2.3427910162    1.4306006087
     H     7.6656664814    4.5770123906    1.4957937546
     H     9.7238855206    5.0303991797    0.1784563989
     H    10.7131763632    3.2302007351   -1.2208836166
     H     9.6518020826    1.0092436668   -1.3182893568
     H     6.7210562026   -4.7155087998   -1.4699709474
     H     7.8425677185   -6.9126968428   -1.5355493892
     H     9.9353456446   -7.2862752995   -0.2477153134
     H    10.8840066968   -5.4429910471    1.1236076624
     H     9.7490417846   -3.2596770104    1.2236527688
     H    -1.7550471441   -2.7970942638   -0.1043219684
     H    -3.9105261717   -1.5292851351   -0.0904796251
     H    -3.9162067059    0.9341354806   -0.0415343260
     H    -1.7660660961    2.2108420358   -0.0042521151
