104
-3.9241259717253251e+03 frame 61   xyz file generated by TeraChem
     C     1.3419309428    0.1538159034   -1.1299819940
     N     2.7893005553    0.1399062328   -1.1504756643
     C     3.4938051597   -1.0920058841   -1.1770870228
     O     2.9431425301   -2.1869744678   -1.1748752871
     C     4.8838221813   -0.7035781191   -1.2082408549
     C     4.9513840706    0.7061546897   -1.2057629849
     C     3.6601461009    1.2151327732   -1.1663971377
     C     3.2329436567    2.5856992738   -1.1340897516
     N     1.9780772757    2.9777033787   -1.0532538572
     C     1.8828611783    4.3234583455   -1.0410016711
     C     3.0698450491    5.0299934761   -1.1136461895
     S     4.3818192118    3.9078615675   -1.1928284418
     C     3.2585539731    6.4746191894   -1.1235062279
     C     2.2858845911    7.3221738846   -0.5727651981
     C     2.4411257761    8.7001287923   -0.5890965450
     C     3.5934531688    9.2906162750   -1.1289339782
     C     4.5744995021    8.4389197618   -1.6697677145
     C     4.4015799711    7.0626770815   -1.6861679830
     S     6.0814789945    9.1553032211   -2.2603200783
     C     5.3915300336   10.6189950612   -2.9804836756
     C     4.3214615057   11.2487273657   -2.3243201433
     N     3.7921031763   10.6761037518   -1.1491584016
     C     3.0404508360   11.5156101021   -0.2197090232
     C     3.3721095582   11.2285962202    1.2505256918
     C     4.8350009337   11.5515388983    1.5429307371
     C     2.4378150047   12.0257424279    2.1698674979
     C     0.9939739726   11.5328005486    2.1984177720
     C     3.8029120325   12.4241698163   -2.8824262207
     C     4.3728415859   12.9770650564   -4.0265302280
     C     5.4418173218   12.3507807808   -4.6606302693
     C     5.9362825495   11.1557381261   -4.1441199570
     C     6.3416808128    1.0947024121   -1.2230532231
     O     6.8919794950    2.1897042208   -1.2299157864
     N     7.0466421749   -0.1369980856   -1.2341963046
     C     6.1758988417   -1.2123397495   -1.2214263646
     C     6.6054503611   -2.5822635450   -1.2168679704
     N     7.8634571575   -2.9718838533   -1.2090941708
     C     7.9621696833   -4.3169522417   -1.1935623320
     C     6.7745020250   -5.0270478250   -1.1894433670
     S     5.4578235696   -3.9070087914   -1.2135829348
     C     6.5875406586   -6.4709914082   -1.1641370903
     C     5.3813460890   -7.0585396337   -0.7570190843
     C     5.2265090088   -8.4363160375   -0.7184787597
     C     6.2680949683   -9.2899269531   -1.1091782388
     C     7.4757947387   -8.6994948648   -1.5301970669
     C     7.6385104468   -7.3233767233   -1.5416067857
     S     8.7577765147   -9.7555067783   -2.1455083818
     C     8.5477631031  -11.0823255203   -0.9913722415
     C     7.2441447674  -11.4301966340   -0.6012162014
     N     6.1510711423  -10.6832643753   -1.0874058099
     C     4.8229178960  -11.2901306352   -1.1057586016
     C     4.0347253678  -10.9756834073   -2.3840127452
     C     4.7802164293  -11.4854822460   -3.6148210046
     C     2.6283198735  -11.5833261031   -2.3051490320
     C     1.7016058283  -10.9380208895   -1.2787003445
     C     7.0826855629  -12.5051691362    0.2816774733
     C     8.1851526333  -13.2371500374    0.7162990760
     C     9.4715127265  -12.8890679957    0.3149223528
     C     9.6504587472  -11.7933350427   -0.5258051063
     C     8.4940485084   -0.1498735594   -1.2581262277
     H     1.0288316901   -0.8914981000   -1.1527515002
     H     0.9430913859    0.6792671060   -2.0000605461
     H     0.9663982280    0.6332493858   -0.2237896401
     H     0.9019559670    4.7847761505   -0.9981652024
     H     1.3952826479    6.9001643403   -0.1168422912
     H     1.6590048388    9.3211958428   -0.1666901440
     H     5.1696103098    6.4438359499   -2.1434572516
     H     1.9606468801   11.4446104408   -0.4091048611
     H     3.3274325636   12.5508574064   -0.4215687945
     H     3.2067327338   10.1611952985    1.4522270841
     H     5.0293712527   12.6228946152    1.4026441827
     H     5.5085906219   10.9970645263    0.8811037497
     H     5.0883005044   11.2960471326    2.5777228436
     H     2.4661338497   13.0864708980    1.8795274045
     H     2.8469455611   11.9805152055    3.1876555047
     H     0.5051207081   11.6198102536    1.2217020388
     H     0.3985130683   12.1115077390    2.9131382467
     H     0.9477046012   10.4798707629    2.5016220076
     H     2.9449610671   12.9087549982   -2.4284774108
     H     3.9604700286   13.8976063682   -4.4303008536
     H     5.8819601811   12.7783713786   -5.5566126606
     H     6.7582675491   10.6395567774   -4.6327621483
     H     8.9456858988   -4.7734878192   -1.1638541987
     H     4.5533707787   -6.4340038092   -0.4313494979
     H     4.2863868348   -8.8488772630   -0.3691290397
     H     8.5831370719   -6.9106522569   -1.8835155526
     H     4.2522046768  -11.0213156741   -0.2062620150
     H     4.9690299093  -12.3733002372   -1.0738460511
     H     3.9219763439   -9.8865665071   -2.4768837774
     H     4.8849675399  -12.5777859855   -3.5800012818
     H     5.7835203103  -11.0524563088   -3.6831630130
     H     4.2350688607  -11.2291390999   -4.5300352875
     H     2.7146085762  -12.6618098290   -2.1061507266
     H     2.1702636609  -11.4950177019   -3.2988722015
     H     2.0634033130  -11.0628985854   -0.2521539985
     H     0.7007823377  -11.3812418506   -1.3263750356
     H     1.5979882940   -9.8624861143   -1.4671180245
     H     6.0939080623  -12.7702600405    0.6412796750
     H     8.0307273145  -14.0757351182    1.3897699068
     H    10.3316660520  -13.4552876450    0.6597854970
     H    10.6469474806  -11.4933925565   -0.8389372357
     H     8.8056364194    0.8959542549   -1.2773645927
     H     8.8666911927   -0.6641623840   -2.1462039614
     H     8.8968551116   -0.6402698866   -0.3696780352
