118
-2.9823014402222798e+03 frame 75   xyz file generated by TeraChem
     C     2.2640382650   -0.1936867587   -4.8356141321
     C     2.6828064674    1.1669433368   -4.2865668897
     N     1.7930772240    2.2422294927   -4.6873504862
     C     0.6680686233    2.6515266058   -4.0068862701
     C     0.1496073748    2.1901175355   -2.7906071066
     C    -0.9991601327    2.7884594080   -2.3071283995
     C    -1.6522463556    3.8364343646   -3.0043037249
     C    -1.1213494483    4.2765548559   -4.2267002599
     C     0.0321406277    3.6904880697   -4.7315157006
     C     0.8228745417    3.8979229614   -5.9231191271
     C     1.8981920619    2.9730936855   -5.8511616600
     C     2.8647158588    2.9026497588   -6.8572108279
     C     2.7389634460    3.7744224948   -7.9260228525
     C     1.6785522579    4.7062295963   -8.0263690636
     C     0.7165088557    4.7592086443   -7.0063245581
     C     1.6374337915    5.5693594784   -9.1944004434
     C     0.7072181211    6.4901607406   -9.5149801210
     C     0.8474658814    7.2650102623  -10.7563046641
     O     1.7753544728    7.1761935922  -11.5390782830
     O    -0.1451414263    8.1354414798  -11.0301890394
     C    -2.8505362172    4.4885107577   -2.5176909831
     C    -3.5129190971    4.2577190168   -1.3585358107
     C    -4.6914890300    4.9824158852   -0.9718047727
     C    -5.3762127518    4.7853025248    0.2005448372
     C    -6.5549981697    5.5233850648    0.4878620457
     C    -7.2475874076    5.3523416922    1.7199452832
     C    -6.5625496799    4.9256995600    2.9500505631
     O    -5.4370933046    4.4544246488    3.0794906597
     C    -7.4941368783    5.2212159408    4.0692614783
     C    -8.6913143139    5.7284221168    3.5460282406
     C    -8.5811124758    5.7197196058    2.0624995740
     C    -9.6703974863    5.8710490044    1.2006830741
     C    -9.6408805890    5.4599240387   -0.1568735591
     N    -9.6670679747    5.0965593756   -1.2640919905
     C   -10.9533137456    6.3083690354    1.6205884873
     N   -12.0218812161    6.6756925955    1.9072645989
     C    -9.7144849289    6.1001362670    4.4125379519
     C    -9.5063713889    5.9561869200    5.7892760039
     C    -8.3148641411    5.4393439242    6.2960899788
     C    -7.2877751123    5.0607436379    5.4268531914
     C    -6.9254727287    6.5002995880   -0.4730583496
     C    -6.1954859316    6.6747118120   -1.6212365427
     O    -5.1149375923    5.9021620411   -1.8664995948
     C    -6.4831617899    7.6540521937   -2.6318518056
     C    -5.7285225789    7.8077621763   -3.7463327907
     C    -5.9213352197    8.7508092245   -4.8293344923
     C    -5.0007663859    8.7054814456   -5.9054499808
     C    -5.0839668151    9.5559919989   -6.9927470871
     C    -6.1268938807   10.4862969992   -7.0073055647
     C    -7.0660335811   10.5584890007   -5.9417914166
     C    -6.9614437864    9.6938876053   -4.8605358778
     C    -7.9890902763   11.6159554557   -6.2883491693
     C    -9.1102797613   12.1633342621   -5.6733641395
     C    -9.8081829662   13.2064003302   -6.2984567965
     C   -10.9726465188   13.7563396060   -5.6262535155
     C   -11.7971107010   14.7293258079   -6.0620322038
     C   -12.9292490008   15.1569527762   -5.2280272965
     O   -13.1953765160   14.7141834963   -4.1259272984
     O   -13.7223868548   16.1177308890   -5.7442795111
     C    -9.3558201724   13.6863404441   -7.5524335386
     C    -8.2435494766   13.1600769544   -8.1819655172
     C    -7.5606115319   12.1206450588   -7.5404229987
     N    -6.4421203440   11.4322323236   -7.9574265708
     C    -5.7406997693   11.6737590041   -9.2073075394
     C    -4.7941340602   12.8799997529   -9.1700830750
     C    -3.6699459282   12.6757683462   -8.1577803365
     C    -4.2199173094   13.1537558789  -10.5653324028
     C    -5.2379453607   13.5942140816  -11.6124576358
     C     3.2203406561   -1.3004676167   -4.4036148099
     C     2.8170236627   -2.6663658915   -4.9456011277
     H     2.2235211576   -0.1426961996   -5.9319307788
     H     1.2470304168   -0.4234772780   -4.4906554669
     H     3.6914529894    1.4249343791   -4.6258059139
     H     2.7134077014    1.1475764678   -3.1924281583
     H     0.6267306075    1.3856685424   -2.2394936768
     H    -1.4087261886    2.4365822005   -1.3649407262
     H    -1.6173749694    5.0769930899   -4.7710530576
     H     3.6846753876    2.1926712085   -6.8122019201
     H     3.4772520063    3.7422847955   -8.7233343527
     H    -0.1065683000    5.4666227329   -7.0580482556
     H     2.4616725436    5.4507088022   -9.8983244486
     H    -0.1592795480    6.6794684989   -8.8851238061
     H    -0.8237368141    8.1126155008  -10.3361296177
     H    -3.2461858996    5.2601636700   -3.1763797266
     H    -3.1829449167    3.5105001008   -0.6422834857
     H    -5.0082932031    4.0477566503    0.9006789069
     H   -10.6532197918    6.5083791811    4.0580245359
     H   -10.2947520250    6.2557004591    6.4742329009
     H    -8.1860653283    5.3330179567    7.3695131149
     H    -6.3508092424    4.6534126004    5.7968398949
     H    -7.7578602054    7.1711031626   -0.3005690705
     H    -7.3597284959    8.2661995324   -2.4389883288
     H    -4.8674888806    7.1512766886   -3.8633608137
     H    -4.1985250887    7.9727744358   -5.8687172703
     H    -4.3577438810    9.4999829126   -7.7971500736
     H    -7.6805166628    9.7522434329   -4.0479887821
     H    -9.4519667239   11.7880450700   -4.7113658192
     H   -11.2040109018   13.3247331131   -4.6521203133
     H   -11.6563162313   15.2158066324   -7.0241930743
     H   -13.4122116224   16.3885413533   -6.6238798391
     H    -9.8908790433   14.4959300009   -8.0394533554
     H    -7.9141301645   13.5475506661   -9.1409513481
     H    -6.4999060361   11.7994665247   -9.9857488883
     H    -5.1792536144   10.7673997116   -9.4559731643
     H    -5.3817002404   13.7594878907   -8.8676527999
     H    -3.0537589927   11.8111370902   -8.4353055292
     H    -4.0530768352   12.5082818972   -7.1453845551
     H    -3.0184393014   13.5561761457   -8.1269562777
     H    -3.6868036194   12.2569658794  -10.9140136865
     H    -3.4570839898   13.9367309300  -10.4626059382
     H    -5.9521334908   12.8022041600  -11.8639168588
     H    -4.7350594550   13.8823130818  -12.5421869561
     H    -5.8115850693   14.4612358994  -11.2621725828
     H     3.2615754882   -1.3353978291   -3.3061720304
     H     4.2360640950   -1.0533975728   -4.7420065932
     H     1.8164943468   -2.9482014877   -4.5964912422
     H     3.5163305366   -3.4453236030   -4.6228398792
     H     2.7987127326   -2.6646252728   -6.0419477849
