73
-1.8332408313826454e+03 frame 109   xyz file generated by TeraChem
     C    -1.6436596414   -5.1000188954   -2.9283992399
     C    -2.1430950554   -5.1806844594   -1.6285247897
     C    -3.0074967754   -4.2046364798   -1.1479786108
     C    -3.3791403197   -3.1228053692   -1.9596147759
     C    -2.8808717758   -3.0540696983   -3.2685727758
     C    -2.0180467616   -4.0354552822   -3.7457094220
     C    -4.2767985514   -2.0763298114   -1.4534896097
     C    -4.4883655446   -1.7718840389   -0.1530066170
     C    -5.3833998244   -0.7046200570    0.2398081263
     C    -5.6934549086   -0.3242617857    1.5201015613
     C    -5.3368672392   -0.9270910099    2.7884936804
     C    -5.3518535222   -0.1070321107    3.9412895721
     C    -5.0398289114   -0.5978467901    5.1936142891
     C    -4.7065958504   -1.9542658546    5.3775956605
     C    -4.7234480376   -2.7823021594    4.2416459407
     C    -5.0313481429   -2.2900773458    2.9831495805
     C    -4.3777159410   -2.5337841118    6.6672556793
     C    -4.2637773802   -1.8851938080    7.8462861750
     C    -3.9459583602   -2.5548060545    9.0989381886
     C    -3.8284146881   -1.8170692659   10.2827236991
     C    -3.5350240061   -2.5151563893   11.4491878491
     N    -3.3687855989   -3.8439066097   11.4439761076
     C    -3.4961516902   -4.4655445914   10.2661440997
     N    -3.7751328425   -3.8899552687    9.1007091200
     C    -3.3110806632   -5.9486055434   10.2798139084
     C    -3.1711445258   -6.6262238905   11.4946913810
     C    -3.0074137373   -8.0062348440   11.4780746606
     C    -2.9848146523   -8.6637891667   10.2530266345
     C    -3.1297233909   -7.8992543448    9.0967715674
     N    -3.2912306214   -6.5769968699    9.0965696509
     C    -3.3937996396   -1.8127134695   12.7507133173
     C    -3.0930604620   -2.5212065565   13.9163903548
     C    -2.9725368555   -1.8201735060   15.1106873548
     C    -3.1548357568   -0.4414038274   15.1016811407
     C    -3.4516699765    0.1751035748   13.8870561750
     N    -3.5704743897   -0.4834295012   12.7361049950
     C    -5.9294474804    0.0307729693   -0.8809388867
     C    -5.6728845603   -0.3124148911   -2.1615331392
     O    -4.8839997177   -1.3886302333   -2.4630143740
     C    -6.1960709955    0.3472052802   -3.3643676123
     C    -6.6888331689    1.6595993084   -3.3085336897
     C    -7.1977454027    2.2703674580   -4.4478775210
     C    -7.2165933559    1.5876674085   -5.6641546256
     C    -6.7181037794    0.2884654330   -5.7314831786
     C    -6.2092578044   -0.3287858359   -4.5930540867
     H    -0.9713716592   -5.8669573981   -3.3033196385
     H    -1.8681319051   -6.0148494970   -0.9888377225
     H    -3.4125198771   -4.2954500586   -0.1442809852
     H    -3.1637299639   -2.2225303795   -3.9060829244
     H    -1.6351340520   -3.9657134757   -4.7602855555
     H    -3.9204380977   -2.3113102760    0.5932244922
     H    -6.2743447460    0.5935110626    1.6084625816
     H    -5.6100434453    0.9438229455    3.8298371984
     H    -5.0625767558    0.0780049543    6.0443300246
     H    -4.5022510831   -3.8410521032    4.3594481760
     H    -5.0826462276   -2.9852679654    2.1516507359
     H    -4.2052148374   -3.6094935589    6.6750482290
     H    -4.4082870722   -0.8092255240    7.9128110859
     H    -3.9615345809   -0.7418702860   10.2992431819
     H    -3.1947599086   -6.0703945459   12.4247619195
     H    -2.9007260987   -8.5576654967   12.4082557053
     H    -2.8585730754   -9.7401856698   10.1882065544
     H    -3.1146424372   -8.3787733482    8.1190180276
     H    -2.9599444836   -3.5961676895   13.8720368269
     H    -2.7393969509   -2.3436276576   16.0338414372
     H    -3.0708141170    0.1479389795   16.0095026656
     H    -3.6011462490    1.2525649431   13.8408004577
     H    -6.5908185639    0.8678415837   -0.6837829884
     H    -6.6549269410    2.2145333184   -2.3757014655
     H    -7.5716618048    3.2888669462   -4.3879186193
     H    -7.6115458985    2.0690319451   -6.5546727671
     H    -6.7264117323   -0.2506324704   -6.6749673922
     H    -5.8271760467   -1.3428401207   -4.6499252481
