53
-1.3793218801539720e+03 frame 100   xyz file generated by TeraChem
     O     6.9063349989    1.0698364776    3.5479137041
     C     5.9163678944    1.7634202303    3.3314588906
     C     4.8742440387    1.5857615032    2.3178827473
     C     4.7492767228    0.5834715175    1.3788782898
     C     5.6043910142   -0.5120481203    1.1861218702
     C     5.3522457180   -1.4594859204    0.2097895839
     C     6.1528400834   -2.5871760008   -0.0180522220
     C     5.9311373291   -3.5658997291   -0.9841500307
     C     4.8535733913   -3.5582875762   -1.9300759733
     C     4.7016113160   -4.5655649081   -2.8277435695
     O     5.5826274019   -5.5971656414   -2.8805033570
     C     6.6300827200   -5.6574001534   -2.0180883594
     C     6.8143105327   -4.6899290449   -1.0840278638
     C     7.4528872624   -6.8542876392   -2.2172790214
     C     6.9538583449   -7.9369211240   -2.9570118401
     C     7.7248196212   -9.0799242475   -3.1363021476
     C     9.0021168382   -9.1590373841   -2.5851434954
     C     9.5079624575   -8.0837836335   -1.8547024757
     C     8.7435385226   -6.9384265429   -1.6729378414
     C     3.6417412635   -4.6780257417   -3.8345546257
     C     3.8066006451   -5.5178562089   -4.9460020667
     C     2.8051751649   -5.6150506149   -5.9058751592
     C     1.6281624752   -4.8816333654   -5.7701793597
     C     1.4539006310   -4.0512711375   -4.6632067665
     C     2.4494949524   -3.9512001239   -3.6998879437
     C     3.9059712489    2.6793733912    2.4441059422
     O     2.8972745041    2.8723142967    1.7729764305
     C     4.3759643457    3.5385097972    3.5716060042
     C     5.5547472314    2.9988161441    4.0942031816
     C     6.2064605974    3.5975378857    5.1619732176
     C     5.6470224201    4.7593495816    5.7004103469
     C     4.4680066747    5.2998481540    5.1761092840
     C     3.8163032435    4.6919421455    4.1000051922
     H     3.8788205328    0.6621204994    0.7230116173
     H     6.4762849345   -0.6149606365    1.8270719977
     H     4.4657055104   -1.3075848111   -0.4068106796
     H     7.0235080816   -2.7200075129    0.6224572105
     H     4.1480084776   -2.7375672723   -1.9546548061
     H     7.6387379182   -4.7765600022   -0.3853469847
     H     5.9566139802   -7.8844657425   -3.3814709497
     H     7.3237884141   -9.9130161984   -3.7068441885
     H     9.6036086459  -10.0526405486   -2.7272583348
     H    10.5070197606   -8.1335227458   -1.4308938902
     H     9.1623174073   -6.1016476520   -1.1221539714
     H     4.7250328383   -6.0843368315   -5.0609304835
     H     2.9472928438   -6.2649700376   -6.7648495636
     H     0.8465025180   -4.9598331894   -6.5207925740
     H     0.5336832002   -3.4864211483   -4.5435132751
     H     2.2865668368   -3.3231350074   -2.8292933761
     H     7.1219786675    3.1720249544    5.5637547794
     H     6.1323625347    5.2524241057    6.5384009534
     H     4.0557448644    6.2048200692    5.6141951336
     H     2.8996947079    5.1043340786    3.6871864573
