45
-1.1088099657091318e+03 frame 77   xyz file generated by TeraChem
     C     1.2684041169    0.1216112163   -1.1137226571
     C     0.6542622082   -0.7266142707   -0.1925783988
     C    -0.7109612579   -0.6309291873    0.0465143942
     C    -1.4854703780    0.3248957996   -0.6277318189
     C    -0.8625584121    1.1673551603   -1.5597677435
     C     0.5044109557    1.0653788850   -1.7972078332
     C    -2.9253116320    0.4455162699   -0.3657519123
     C    -3.5762405157    0.0053203276    0.7352688825
     C    -5.0018700137    0.1729110290    0.8846477058
     C    -5.7426830392   -0.2675721917    1.9598035989
     C    -5.2386148037   -0.9660254922    3.0917260222
     C    -6.0033868203   -1.3872696482    4.1353045960
     C    -5.4871766909   -2.1010465123    5.2829835444
     C    -6.3561113814   -2.5029775000    6.3197997428
     N    -5.9446035281   -3.1598172368    7.3968771665
     C    -4.6363486599   -3.4330617147    7.4617197661
     C    -3.7645446346   -3.0435311094    6.4470545314
     N    -4.1711915083   -2.3856559374    5.3660462494
     C    -5.6310025439    0.8628970839   -0.2140826895
     C    -4.9245637066    1.3081106153   -1.2780852485
     O    -3.5786194466    1.0961541629   -1.3709393580
     C    -5.4577384859    2.0188487661   -2.4461787913
     C    -6.7102711753    2.6493649730   -2.3947738082
     C    -7.2147345756    3.3058444466   -3.5102597607
     C    -6.4768635448    3.3532924111   -4.6929598906
     C    -5.2274001645    2.7394367450   -4.7497018033
     C    -4.7184885394    2.0780043045   -3.6366305911
     H     2.3356910616    0.0423680461   -1.3016254020
     H     1.2392213480   -1.4748780095    0.3352288131
     H    -1.1791758075   -1.3183305859    0.7448285560
     H    -1.4516110048    1.9092327249   -2.0893912851
     H     0.9743322600    1.7289799619   -2.5180364004
     H    -2.9959708351   -0.4696888346    1.5165010299
     H    -6.8131710701   -0.0648191811    1.9388952172
     H    -4.1736020709   -1.1884879643    3.1413368960
     H    -7.0745224623   -1.1894731598    4.1325700691
     H    -7.4191269756   -2.2739207908    6.2543136447
     H    -4.2771533588   -3.9706705377    8.3359437175
     H    -2.7023670270   -3.2735614018    6.5150988301
     H    -6.7042958084    1.0177328217   -0.1913643019
     H    -7.2860874944    2.6461694155   -1.4741671712
     H    -8.1846768032    3.7921594952   -3.4519896628
     H    -6.8720143176    3.8707794732   -5.5628662437
     H    -4.6446312484    2.7721879193   -5.6662529660
     H    -3.7485902047    1.5942890563   -3.6902397816
