96
-2.4126676871945583e+03 frame 120   xyz file generated by TeraChem
     C    -1.2616156526    0.7597036437   -3.2679372376
     C    -2.4692389811    0.6581354903   -3.9550997848
     C    -3.5966944024    0.1461760147   -3.3210758951
     C    -3.5305067175   -0.2753841165   -1.9851939807
     C    -2.3136345973   -0.1574304384   -1.2970418203
     C    -1.1895846516    0.3504577192   -1.9363482189
     C    -4.7209798951   -0.8281468830   -1.3251898966
     C    -4.7340400164   -1.5830509373   -0.2028299411
     C    -5.9675890483   -2.0981512603    0.3500499542
     C    -6.0983298287   -2.8525131332    1.4884944971
     C    -5.1080444573   -3.2051159904    2.4848522228
     C    -3.9661334184   -2.4301679417    2.7869608036
     C    -3.0695635738   -2.8189188874    3.7662747055
     C    -3.2739210625   -4.0018984989    4.5012567953
     C    -4.4251795627   -4.7684328448    4.2339308931
     C    -5.3182683824   -4.3695971042    3.2578000380
     C    -2.3489584200   -4.3993872540    5.4977301959
     C    -1.5510329815   -4.7400454632    6.3518383485
     C    -0.5971175851   -5.1055945176    7.3409788785
     C     0.4692981934   -4.2508872192    7.6567245439
     C     1.3477723773   -4.6907862921    8.6349568554
     N     1.2155942593   -5.8624185792    9.2587857921
     C     0.1624493895   -6.6080744355    8.8797568227
     N    -0.7538946172   -6.2914493810    7.9554907333
     C     0.0080278925   -7.8726258533    9.5265602828
     C    -0.1083732622   -8.9528020181   10.0740623881
     C    -0.2363137556  -10.2132172015   10.7101123849
     C     0.6919942204  -10.6240647326   11.6863804805
     C     0.5663831754  -11.8584750448   12.2942580593
     C    -0.4900768593  -12.7431422746   11.9790354006
     C    -1.3967973685  -12.3284481399   10.9784253493
     C    -1.2774793919  -11.0939882497   10.3634231526
     C    -0.5250935910  -14.0251683777   12.6521310724
     C    -1.5685856926  -14.8870308490   12.8752450726
     C    -2.9668581992  -14.6494840467   12.5892781651
     C    -3.9134157491  -15.5780287676   12.8577309036
     O    -3.5929068306  -16.8012456279   13.3678506802
     C    -2.2964421510  -17.0728683439   13.7051015760
     C    -1.3174298518  -16.1642541476   13.5077271336
     C    -2.1436596751  -18.4088357130   14.2938524352
     C    -3.2559570100  -19.0814301871   14.8204041861
     C    -3.1128504165  -20.3443842040   15.3862946562
     C    -1.8622148147  -20.9563674771   15.4329646382
     C    -0.7521921874  -20.2971399999   14.9048011012
     C    -0.8901445381  -19.0373514308   14.3351566535
     C    -5.3586444250  -15.4394461731   12.6297335164
     C    -6.1756848295  -16.5787740101   12.5943569808
     C    -7.5426425979  -16.4603972172   12.3650430145
     C    -8.1166584465  -15.2060193063   12.1716409211
     C    -7.3124908018  -14.0670266357   12.2132268769
     C    -5.9469324412  -14.1794071108   12.4434793435
     C    -7.1323483120   -1.7985725872   -0.4542615606
     C    -7.0584197115   -1.0413002627   -1.5702804016
     O    -5.8673313776   -0.5234539906   -1.9964893251
     C    -8.1754683832   -0.6394049147   -2.4344123145
     C    -8.0341522712    0.4507546788   -3.3052745185
     C    -9.0926745599    0.8483909503   -4.1157457501
     C   -10.3055145253    0.1646342760   -4.0735941373
     C   -10.4515623838   -0.9259906058   -3.2162541802
     C    -9.3969272469   -1.3288093460   -2.4061842789
     H    -0.3818177227    1.1602075493   -3.7641915841
     H    -2.5353989534    0.9760318602   -4.9920930592
     H    -4.5328144721    0.0604478707   -3.8628090429
     H    -2.2477604155   -0.4456536517   -0.2520638389
     H    -0.2551885991    0.4375327382   -1.3886920768
     H    -3.7849917899   -1.8476148896    0.2439060712
     H    -7.0860337250   -3.2783967821    1.6622629288
     H    -3.8037762886   -1.4847036842    2.2805775652
     H    -2.2039661934   -2.2003289496    3.9852548385
     H    -4.6052400871   -5.6759922676    4.8028592121
     H    -6.2026852542   -4.9721049386    3.0652658725
     H     0.5940073000   -3.2957105425    7.1598896805
     H     2.1963060276   -4.0773571741    8.9324722493
     H     1.5100278676   -9.9622643446   11.9559516200
     H     1.2936841827  -12.1597735135   13.0443884404
     H    -2.1772642583  -13.0006791697   10.6391324737
     H    -1.9821432240  -10.8044389239    9.5891316017
     H     0.4331151444  -14.3364809165   13.0671437904
     H    -3.2872452203  -13.6985610827   12.1861324643
     H    -0.3068578326  -16.4038999464   13.8207375607
     H    -4.2314030455  -18.6066422085   14.7938583856
     H    -3.9838176496  -20.8505871420   15.7937833225
     H    -1.7525172958  -21.9437296918   15.8731926021
     H     0.2250855747  -20.7716710147   14.9246945152
     H    -0.0217705716  -18.5504061270   13.9011527816
     H    -5.7333198111  -17.5591570938   12.7367223680
     H    -8.1603355168  -17.3539392096   12.3360350718
     H    -9.1847595022  -15.1144769919   11.9943132614
     H    -7.7523386799  -13.0830852694   12.0753350249
     H    -5.3424069800  -13.2789218205   12.4978484061
     H    -8.1002335864   -2.1639293628   -0.1283942700
     H    -7.0947499805    0.9929869840   -3.3371638693
     H    -8.9677433484    1.6986430119   -4.7808744782
     H   -11.1311551494    0.4750850496   -4.7081491187
     H   -11.3896769489   -1.4734106285   -3.1849407159
     H    -9.5209021922   -2.1966360918   -1.7650540326
