92
-2.9791062352227018e+03 frame 60   xyz file generated by TeraChem
     C     5.0609855292   -0.6550579728    2.9509686496
     S     3.5556042563   -0.9637709487    2.0029503915
     C     3.9305465394   -2.4229805431    1.0794699587
     C     2.9248371578   -2.9132048049    0.2335810512
     C     3.1387984956   -4.0518594568   -0.5264695785
     C     4.3571733278   -4.7477662020   -0.4709171464
     C     5.3516505633   -4.2493429522    0.3800128863
     C     5.1494436072   -3.1043558273    1.1437599412
     C     4.5762650196   -5.9598910745   -1.2829766760
     C     3.9863911178   -6.0957199934   -2.5493392042
     C     4.1827504831   -7.2344248407   -3.3139910152
     C     4.9712231143   -8.2904518752   -2.8319246874
     C     5.5732215261   -8.1583739595   -1.5695678707
     C     5.3812830849   -7.0125234341   -0.8161257213
     C     5.1915646269   -9.4537941190   -3.6737891533
     N     5.4706539454  -10.7384176485   -3.1774857702
     C     5.0278087048  -11.1897355188   -1.9039572923
     O     4.0367874319  -10.7430078853   -1.3744357972
     O     5.8571992246  -12.1034704770   -1.4486780350
     C     5.5596478149  -12.8673443947   -0.2210440407
     C     4.2348852845  -13.5990059453   -0.3780673929
     C     6.7190752115  -13.8495292081   -0.1624786057
     C     5.5756101799  -11.9271660528    0.9750881883
     C     5.8202659715  -11.6521278939   -4.2454541340
     O     6.0462611433  -12.8352162616   -4.0963024807
     C     5.7352208381  -10.8182918270   -5.4302973992
     C     5.3306055901   -9.5089206335   -5.0383314258
     C     5.4383995005   -8.6256828186   -6.1847528815
     O     5.1466210156   -7.4588165942   -6.3449878799
     N     5.9381689906   -9.5010846799   -7.2241861733
     C     6.1257478102  -10.8099823495   -6.7464195890
     C     6.7856944466  -11.8561855860   -7.5082586836
     C     6.4801653029  -13.2007904231   -7.2466175945
     C     7.1322641024  -14.2165165200   -7.9279793356
     C     8.1199772279  -13.9332799977   -8.8840429079
     C     8.4325527598  -12.5853351042   -9.1272744286
     C     7.7772147969  -11.5650151414   -8.4595771914
     C     8.8134152768  -15.0166361401   -9.6067532092
     C     8.1526384740  -16.2067691585   -9.9354051725
     C     8.7963750627  -17.2335069714  -10.6182767358
     C    10.1368755017  -17.0961597701  -10.9906532515
     C    10.8112728560  -15.9101149145  -10.6653126212
     C    10.1587119750  -14.8916015461   -9.9893091189
     S    11.0623922626  -18.3262820021  -11.8580538142
     C     9.8852322695  -19.6779696564  -12.0744044221
     C     5.8073561054   -9.1927049728   -8.6056543691
     O     5.3911099347   -9.9985678410   -9.4057458349
     O     6.2136846305   -7.9611110306   -8.8234048395
     C     6.0450787212   -7.3211913326  -10.1433907312
     C     4.5724889042   -7.3141406951  -10.5284352108
     C     6.5450273557   -5.9089963157   -9.8841347184
     C     6.9197178880   -8.0330264175  -11.1646951881
     H     4.8587134805    0.2435572063    3.5392339348
     H     5.9147619960   -0.4647253752    2.2953955744
     H     5.2825284214   -1.4815692349    3.6311562302
     H     1.9662654569   -2.4029076627    0.1773953190
     H     2.3332688780   -4.4222355244   -1.1546262642
     H     6.3171237446   -4.7456628596    0.4325028077
     H     5.9532215267   -2.7478426863    1.7790804380
     H     3.3820391544   -5.2882675995   -2.9525593965
     H     3.7280547042   -7.3100659016   -4.2958628869
     H     6.2150365498   -8.9443082411   -1.1826258106
     H     5.8461180520   -6.9418462256    0.1630557411
     H     4.2390707562  -14.2000197015   -1.2932616601
     H     3.3925767043  -12.9050014769   -0.4072061573
     H     4.0997212377  -14.2725891473    0.4743782476
     H     6.7256469420  -14.4891206934   -1.0506097203
     H     6.6196376393  -14.4830184427    0.7242014923
     H     7.6738804640  -13.3173380672   -0.1045516437
     H     4.7522998029  -11.2115348553    0.9295326316
     H     6.5245626408  -11.3823141477    1.0192193699
     H     5.4766784971  -12.5164162279    1.8926950667
     H     5.7330129867  -13.4452426710   -6.4990463257
     H     6.8869588090  -15.2490302032   -7.6960445266
     H     9.1863032149  -12.3311790697   -9.8669295158
     H     8.0590102608  -10.5355633987   -8.6601687461
     H     7.1038480980  -16.3300109360   -9.6785093202
     H     8.2394336418  -18.1326502846  -10.8602752376
     H    11.8570886198  -15.7890946704  -10.9374373269
     H    10.7138960608  -13.9937813373   -9.7311504296
     H    10.4297293511  -20.4588697010  -12.6111621960
     H     9.0261580502  -19.3686770959  -12.6754655113
     H     9.5506756292  -20.0755041462  -11.1126466791
     H     3.9733380050   -6.8677822160   -9.7279847993
     H     4.2036144239   -8.3209148448  -10.7341559536
     H     4.4461184957   -6.7066517643  -11.4304216704
     H     5.9453522496   -5.4258744220   -9.1064192309
     H     6.4690371707   -5.3195243512  -10.8027589389
     H     7.5916349891   -5.9227992725   -9.5637793952
     H     6.5863644996   -9.0597225477  -11.3288679666
     H     7.9630847037   -8.0427014272  -10.8320106448
     H     6.8688142707   -7.4925715138  -12.1155646679
