119
-3.4173551966189589e+03 frame 135   xyz file generated by TeraChem
     C     0.9579380315   -1.5708757024    8.0971138378
     C    -0.3362958335   -0.8270607210    8.4146658211
     N    -1.1550743235   -0.5822730320    7.2407675911
     C    -1.0528276959    0.5092276379    6.4052455780
     C    -0.2076297098    1.6198861569    6.5038621977
     C    -0.3164306778    2.6012708484    5.5360846871
     C    -1.2400019196    2.5037812560    4.4662657723
     C    -2.0688052137    1.3765959709    4.3789824267
     C    -1.9828252773    0.3794644031    5.3445258044
     C    -2.6742295285   -0.8718940659    5.5622682245
     C    -2.1169978331   -1.4309364742    6.7449249241
     C    -2.5573973946   -2.6577114910    7.2491153079
     C    -3.5698722792   -3.3024727330    6.5626882624
     C    -4.1549091613   -2.7669452526    5.3877961030
     C    -3.6888930341   -1.5382275912    4.8898103776
     C    -5.2179183851   -3.5280723103    4.7665555125
     C    -5.9421357482   -3.2034439791    3.6672044013
     C    -6.9864145074   -4.0369813528    3.1468769117
     C    -7.7835323195   -3.7093252928    2.0772820821
     C    -8.8322681774   -4.5690537781    1.6692150814
     C    -9.7398491710   -4.2274644222    0.6257424045
     C    -9.6212897705   -3.3336136901   -0.4537396829
     C    -8.3952794888   -2.9420993397   -1.0251434080
     C    -7.1972728505   -3.6534822586   -0.7735652242
     N    -6.2027330677   -4.2399637743   -0.6082707680
     C    -8.2339545308   -1.8971029999   -1.9664258193
     N    -8.0325547686   -1.0398568570   -2.7316268491
     C   -10.9462147130   -2.9552602676   -1.0133382849
     C   -12.0034867274   -3.6772455106   -0.4487796867
     S   -11.4079187170   -4.8061269197    0.7709116503
     O   -11.9625719970   -4.4941203847    2.0976447006
     O   -11.5631223545   -6.1983079399    0.3143990315
     C   -13.3269642585   -3.5289477510   -0.8204465110
     C   -13.6176915978   -2.5879986825   -1.8080033052
     C   -12.5893235778   -1.8470473679   -2.3876416896
     C   -11.2591841156   -2.0253281107   -2.0072897769
     C    -9.0002323200   -5.7611618878    2.4171934218
     C    -8.1578488086   -6.0591405310    3.4610346796
     O    -7.1720795675   -5.2031033866    3.8028154017
     C    -8.2239591949   -7.2588345165    4.2424922181
     C    -7.3514937543   -7.5395695065    5.2422950880
     C    -7.3256237297   -8.7109044969    6.0910783604
     C    -6.2997058300   -8.7927293011    7.0651500000
     C    -6.1768683867   -9.8656137738    7.9289899622
     C    -7.1161106691  -10.8951835374    7.8190923710
     C    -8.1575377917  -10.8418870980    6.8521341432
     C    -8.2594831221   -9.7566481684    5.9947283893
     C    -8.9323931341  -12.0513559367    7.0245754642
     C   -10.0578844640  -12.5675068953    6.3982591553
     C   -10.5823471763  -13.7974900883    6.8251991510
     C   -11.7549774837  -14.4055220991    6.2183199069
     C   -12.5154052257  -13.9163646246    5.2195243059
     C   -13.6665876601  -14.6866285015    4.7286233180
     O   -14.0170450329  -15.7738653729    5.1492878261
     O   -14.3740214506  -14.1228308505    3.7288024614
     C    -9.9505561147  -14.4842367219    7.8885867395
     C    -8.8255077768  -13.9898516592    8.5282584407
     C    -8.3190324971  -12.7662548464    8.0859719359
     N    -7.2308489560  -12.0566342015    8.5486805362
     C    -6.3632923947  -12.4888809877    9.6311446611
     C    -5.3273098150  -13.5413323802    9.2178298568
     C    -4.3691556137  -13.0010611918    8.1601950853
     C    -4.5541787038  -14.0414423084   10.4445448599
     C    -5.3768785926  -14.8480792398   11.4444928491
     C    -1.3695818339    3.5325430381    3.4490114509
     C    -0.7497875705    4.7278975784    3.3950365679
     C    -1.0271777887    5.6429453356    2.2784340480
     O    -1.7318473809    5.3872105462    1.3194725049
     O    -0.4447469169    6.8570740164    2.3457606144
     C     1.8027426857   -1.8036550466    9.3450865164
     C     3.1001862464   -2.5434836714    9.0421848102
     H     1.5321537563   -0.9923793896    7.3610208586
     H     0.7142695276   -2.5322977605    7.6254597503
     H    -0.1191189198    0.1404997729    8.8789536097
     H    -0.9402357808   -1.3921121285    9.1317656360
     H     0.5148719319    1.7139714182    7.3087617027
     H     0.3364772629    3.4666336734    5.6002830397
     H    -2.7779172326    1.2912378618    3.5587992135
     H    -2.1259515095   -3.0946636665    8.1441899785
     H    -3.9355297085   -4.2568852623    6.9332499807
     H    -4.1149297112   -1.1081986435    3.9874778033
     H    -5.4550784931   -4.4679892714    5.2626398402
     H    -5.7787641883   -2.2798519513    3.1191908263
     H    -7.6281644666   -2.7479459865    1.6044156878
     H   -14.1101059504   -4.1215509381   -0.3567185041
     H   -14.6455032605   -2.4350496722   -2.1228838576
     H   -12.8222951052   -1.1135879496   -3.1538969718
     H   -10.4928667712   -1.4279847952   -2.4835763955
     H    -9.7595167284   -6.4899005590    2.1565181746
     H    -9.0287944812   -7.9361292936    3.9717316325
     H    -6.5684227989   -6.8103694641    5.4453472824
     H    -5.5828432099   -7.9781509697    7.1304910953
     H    -5.3754387508   -9.8988123533    8.6599739629
     H    -9.0582912815   -9.7198298970    5.2590958605
     H   -10.5240196523  -12.0191849025    5.5841666299
     H   -12.0501316760  -15.3733246316    6.6241471887
     H   -12.3055428332  -12.9562828381    4.7538711285
     H   -13.9958942559  -13.2630405375    3.4822820375
     H   -10.3655973210  -15.4358317214    8.2115351684
     H    -8.3590856575  -14.5396974571    9.3395695876
     H    -7.0075228399  -12.8710081246   10.4293385205
     H    -5.8573450982  -11.6031122894   10.0288621215
     H    -5.8687252279  -14.3979596669    8.7895573069
     H    -3.7837115197  -12.1606720260    8.5552379952
     H    -4.8968316995  -12.6537863959    7.2652803420
     H    -3.6654818969  -13.7814685549    7.8497746609
     H    -4.0875010591  -13.1819958116   10.9478032682
     H    -3.7268504804  -14.6666183998   10.0838240136
     H    -6.1615697574  -14.2511852566   11.9225830689
     H    -4.7372600822  -15.2399427210   12.2430487057
     H    -5.8588681203  -15.7034107777   10.9553615832
     H    -2.0633823740    3.3099079774    2.6378926111
     H    -0.0536154237    5.0532481512    4.1646187514
     H     0.0781837685    6.9431065549    3.1593134287
     H     1.2164471668   -2.3734433114   10.0791601071
     H     2.0284607083   -0.8365551741    9.8152606265
     H     2.8973494002   -3.5248740308    8.5971243921
     H     3.6897296322   -2.7027775727    9.9516007427
     H     3.7198488370   -1.9792329797    8.3350633982
