47
-1.2182264800831649e+03 frame 56   xyz file generated by TeraChem
     C    -3.9733672320    3.9560811114    1.4254225597
     C    -4.0193368525    2.6895263609    2.0086082078
     C    -3.5300481275    1.5840286827    1.3193307724
     C    -2.9946300300    1.7318280599    0.0359655208
     C    -2.9550158434    3.0006777166   -0.5440975592
     C    -3.4384276094    4.1097198736    0.1488728100
     C    -2.4298649811    0.5409914914   -0.7054605183
     N    -3.3688633070   -0.5673060104   -0.8140963723
     N    -3.3827417317   -1.5012598393    0.1351997617
     C    -4.3785060303   -2.3423281736   -0.1752593224
     C    -5.0187263631   -1.9276052847   -1.3569808347
     C    -4.3460584501   -0.7789287877   -1.7397514907
     C    -4.5761009277    0.0412810067   -2.9008686261
     N    -3.9759893604    1.1163641849   -3.3181918500
     N    -4.5954451008    1.4801480940   -4.4919636810
     C    -5.5323186040    0.6056763655   -4.7106202094
     O    -5.5716083952   -0.3368689129   -3.7366311675
     C    -6.4764067656    0.5343913780   -5.8122615666
     C    -6.4324402348    1.5102013026   -6.8173410151
     C    -7.3284260868    1.4496813856   -7.8764908612
     C    -8.2697499261    0.4215218920   -7.9418915214
     C    -8.3142016831   -0.5486219192   -6.9419983412
     C    -7.4216862646   -0.4966866572   -5.8772981727
     C    -4.6695787620   -3.5105769732    0.6654232042
     C    -3.8532697030   -3.8216616620    1.7617936506
     C    -4.1315863031   -4.9266009157    2.5585038947
     C    -5.2275064402   -5.7411782736    2.2745729223
     C    -6.0442132821   -5.4394804001    1.1863902934
     C    -5.7687265634   -4.3333790144    0.3883466682
     H    -4.3536393043    4.8191919997    1.9655461309
     H    -4.4344631918    2.5634716024    3.0052073495
     H    -3.5627847435    0.5977300484    1.7757988357
     H    -2.5476511821    3.1187046196   -1.5448644355
     H    -3.4022287300    5.0926750970   -0.3135264793
     H    -1.5594354229    0.1327489216   -0.1843926246
     H    -2.1267434710    0.8258546575   -1.7143211848
     H    -5.8406937536   -2.3920482525   -1.8821183050
     H    -5.6961469203    2.3059474842   -6.7581635488
     H    -7.2928673222    2.2067100626   -8.6547135306
     H    -8.9687424882    0.3774123231   -8.7725475562
     H    -9.0462243237   -1.3496985094   -6.9905117645
     H    -7.4557040038   -1.2518996270   -5.0981662905
     H    -2.9979112569   -3.1898798879    1.9816306679
     H    -3.4883731105   -5.1540220252    3.4046337114
     H    -5.4433341413   -6.6049600070    2.8976468904
     H    -6.9017299555   -6.0665459931    0.9569895937
     H    -6.4171638915   -4.1072785840   -0.4536998281
