114
-2.6823311691578529e+03 frame 59   xyz file generated by TeraChem
     C     1.0574790222    4.5844308921   -3.1002387231
     C     0.5030377213    4.7072996912   -1.8269734272
     C     0.0193449461    3.5887358208   -1.1561056928
     C     0.0646053179    2.3275743534   -1.7643918490
     C     0.6141988707    2.2064132156   -3.0469309554
     C     1.1131233771    3.3277563655   -3.7014910119
     N    -0.4467924485    1.1946518019   -1.0884495280
     C    -1.6665114085    1.2930396675   -0.3981665784
     C    -2.7200080972    2.0667983156   -0.9308677967
     C    -3.9122715362    2.2300240600   -0.2535192845
     N    -4.9189370529    3.0525466512   -0.8209447278
     C    -4.5441667647    4.3389069183   -1.2780248321
     C    -4.9372743723    4.8108191473   -2.5363894427
     C    -4.5478935890    6.0781289587   -2.9603416694
     C    -3.7503759127    6.8848238309   -2.1510105969
     C    -3.3496856998    6.4116546917   -0.9018147160
     C    -3.7483113636    5.1540719373   -0.4619770319
     C    -6.1566185127    2.4838482500   -1.1922384943
     C    -7.3185920498    3.2698292608   -1.2109940958
     C    -8.5413676181    2.7051790520   -1.5540189840
     C    -8.6368000614    1.3485753947   -1.8656495014
     C    -7.4856969344    0.5651885934   -1.8384839308
     C    -6.2525671947    1.1241536354   -1.5138445877
     C    -4.1335911509    1.5856204020    1.0010639984
     C    -3.1287939812    0.7160918551    1.4900422754
     C    -1.8729097408    0.6089708030    0.7897887914
     C    -0.9510740685   -0.1018908372    1.6994935094
     C    -1.5184152655   -1.2743745478    2.0906286695
     C    -2.4453903454   -1.0155981854    3.2109488626
     C    -3.3453426221    0.0204034929    2.7676834939
     C    -4.5200599151    0.2937719980    3.5103550334
     C    -5.4886987879    1.2037545661    2.9853811951
     C    -5.3114754529    1.8090786880    1.7784021366
     C    -4.7064438477   -0.3867346568    4.7525392170
     C    -3.8035039000   -1.3422781924    5.1753532145
     C    -2.6891286341   -1.7028180585    4.3889526139
     N    -1.8264918500   -2.7253396009    4.8248999793
     C    -0.4227057126   -2.5473942555    4.7743300890
     C     0.1492940901   -1.3168175626    5.1198766709
     C     1.5293237111   -1.1486887213    5.0689399918
     C     2.3589464317   -2.2056547839    4.6968990840
     C     1.7901821199   -3.4355493231    4.3681976146
     C     0.4103462303   -3.6079859388    4.3986504041
     C    -2.3776273638   -3.8886024498    5.4089602184
     C    -3.5370942021   -4.4603782873    4.8675309575
     C    -4.0996221574   -5.5907904945    5.4508886300
     C    -3.5067665263   -6.1819308219    6.5654817962
     C    -2.3461686149   -5.6215405930    7.0974736590
     C    -1.7870097924   -4.4792233655    6.5337828326
     N    -5.8314860063   -0.0923848489    5.5637779019
     C    -6.5925625961   -1.1726316849    6.0704316971
     C    -6.9860248676   -1.2210789299    7.4135784582
     C    -7.7337924039   -2.2958887121    7.8855540446
     C    -8.0846406397   -3.3445805028    7.0374604232
     C    -7.6839154829   -3.3029493621    5.7023398264
     C    -6.9523264153   -2.2246079357    5.2168970325
     C    -5.9865589699    1.2084517750    6.0937670235
     C    -7.2690931600    1.7119516586    6.3570834188
     C    -7.4275669466    2.9980817560    6.8588744685
     C    -6.3185165270    3.8122834154    7.0910528545
     C    -5.0452013732    3.3169652899    6.8209666835
     C    -4.8739967822    2.0233879911    6.3345821149
     C     0.2089683553   -0.0553015210   -1.2156478471
     C     1.6020667014   -0.1295747644   -1.1014395905
     C     2.2513483048   -1.3509711954   -1.2473705561
     C     1.5245592261   -2.5146171106   -1.4952265810
     C     0.1369598071   -2.4408980903   -1.6090284087
     C    -0.5194597866   -1.2204704955   -1.4834847938
     H     1.4414720417    5.4585779432   -3.6184886091
     H     0.4570471084    5.6792866713   -1.3426766554
     H    -0.3960996178    3.6854216692   -0.1570197084
     H     0.6439689204    1.2327776568   -3.5268276545
     H     1.5359880063    3.2176188454   -4.6967508490
     H    -2.5903138562    2.5538216533   -1.8921311553
     H    -5.5446864142    4.1831341905   -3.1815385736
     H    -4.8609716391    6.4284731475   -3.9405607137
     H    -3.4440104401    7.8706948598   -2.4892004454
     H    -2.7331367891    7.0309138638   -0.2552919159
     H    -3.4467982140    4.7943025611    0.5178710653
     H    -7.2576710986    4.3230561967   -0.9526623147
     H    -9.4302453350    3.3308618197   -1.5630008955
     H    -9.5961437687    0.9097427382   -2.1248154120
     H    -7.5392188624   -0.4925147280   -2.0837868303
     H    -5.3594803470    0.5061499609   -1.5125296689
     H    -0.5565940306    0.5384170109    2.4971502399
     H    -1.9613150069   -1.8927091888    1.3010570330
     H    -6.3883091327    1.3958031417    3.5598482115
     H    -6.0690062956    2.4854411713    1.3969425855
     H    -3.9598193226   -1.8336953574    6.1305698343
     H    -0.4923081923   -0.4946570375    5.4238424107
     H     1.9581807235   -0.1865427161    5.3371924173
     H     3.4366452574   -2.0726272002    4.6641514295
     H     2.4235371885   -4.2674313005    4.0708343815
     H    -0.0292655359   -4.5630717732    4.1258967787
     H    -3.9916624644   -4.0144729220    3.9875354046
     H    -5.0011237618   -6.0184171681    5.0197797766
     H    -3.9433552271   -7.0698179197    7.0139871864
     H    -1.8762345435   -6.0671679552    7.9704307756
     H    -0.8920737487   -4.0389424734    6.9631922129
     H    -6.7039216524   -0.4167326560    8.0862483115
     H    -8.0298880499   -2.3173619562    8.9312898626
     H    -8.6631068667   -4.1843921031    7.4119569077
     H    -7.9544939353   -4.1095637587    5.0256574129
     H    -6.6568773266   -2.1890577446    4.1719092260
     H    -8.1384169894    1.0907127620    6.1617600246
     H    -8.4293436326    3.3712682518    7.0558600188
     H    -6.4471547654    4.8199782815    7.4758699326
     H    -4.1696421333    3.9356992658    7.0006557337
     H    -3.8756165487    1.6412172007    6.1425096690
     H     2.1707570875    0.7723306167   -0.8932852195
     H     3.3333537483   -1.3929019649   -1.1522393908
     H     2.0339821104   -3.4684564791   -1.5999005320
     H    -0.4420249184   -3.3378391664   -1.8138534068
     H    -1.5995131724   -1.1667026258   -1.5872520296
