48
-1.1319109282104864e+03 frame 75   xyz file generated by TeraChem
     C    -2.9943683107    0.3087140381   -4.9878482082
     C    -1.9062795644    1.0403233919   -4.5143644043
     C    -1.6755897991    1.1674131297   -3.1481733043
     C    -2.5280798486    0.5423176801   -2.2279485928
     C    -3.6190482309   -0.1967041422   -2.7063072976
     C    -3.8505327232   -0.3033800120   -4.0734259024
     N    -2.3210974126    0.6562870314   -0.8352757777
     C    -3.4502693737    0.8896684188   -0.0068348115
     C    -4.2961931463    1.9654885259   -0.2939381258
     C    -5.4009694294    2.2400489683    0.4970371300
     C    -5.6946504825    1.4506022727    1.6171037535
     C    -4.8516453939    0.3426230943    1.9158374031
     C    -3.7279553508    0.0457037924    1.0904894592
     C    -2.9344419065   -1.1088310731    1.3984743731
     C    -3.2212232075   -1.8962356010    2.4691614592
     C    -4.3275641311   -1.6089103554    3.3339786301
     C    -5.1470174052   -0.4831008363    3.0390337103
     C    -6.2669763795   -0.1877217284    3.8687057435
     C    -7.0881130680    0.9432200500    3.5467859458
     C    -6.8155229822    1.7236181396    2.4674184423
     C    -6.5352059342   -1.0115413617    4.9706580030
     C    -5.7248653159   -2.1066565912    5.2544866882
     C    -4.6330200097   -2.4061775431    4.4455094138
     C    -1.0228003730    0.7703789177   -0.2940535338
     C    -0.7721419268    1.6204799179    0.7906262197
     C     0.5033846236    1.6953603730    1.3433334255
     C     1.5516866501    0.9419692608    0.8197183211
     C     1.3051332126    0.0992285795   -0.2642437103
     C     0.0318999787    0.0038933088   -0.8131921872
     H    -3.1732497111    0.2176128417   -6.0554892706
     H    -1.2350108950    1.5330230282   -5.2132531346
     H    -0.8361653403    1.7560839368   -2.7906935875
     H    -4.2809493759   -0.6882956980   -1.9988094112
     H    -4.7013060543   -0.8816486984   -4.4247573085
     H    -4.0647194031    2.5951889776   -1.1483435343
     H    -6.0400208826    3.0878295568    0.2625562338
     H    -2.0983002743   -1.3502318141    0.7509972605
     H    -2.6127932138   -2.7713269641    2.6848671404
     H    -7.9399149768    1.1606774960    4.1867794635
     H    -7.4459417476    2.5764969960    2.2273428771
     H    -7.3902392126   -0.7840766269    5.6027906725
     H    -5.9484058719   -2.7345004738    6.1128407979
     H    -4.0046545962   -3.2655391757    4.6671103933
     H    -1.5786608128    2.2225105622    1.1989672913
     H     0.6774870241    2.3605606545    2.1853718758
     H     2.5466765854    1.0079545310    1.2506677397
     H     2.1084006729   -0.5036813081   -0.6802875171
     H    -0.1547310278   -0.6681658080   -1.6457068458
