50
-1.6852284587412805e+03 frame 65   xyz file generated by TeraChem
     C     1.2333479718   -0.8135836483   -0.4809059949
     C     0.9048906700    0.1951038867    0.4236207546
     C    -0.4307954623    0.4778828348    0.6967122759
     C    -1.4568359204   -0.2305582187    0.0563692754
     C    -1.1152502575   -1.2421285079   -0.8507864402
     C     0.2218510668   -1.5333209717   -1.1142108304
     P    -3.1869491524    0.2166740765    0.4842348894
     C    -3.6648889529    1.4294977707   -0.8132901458
     C    -3.0856733880    1.4752454615   -2.0874906560
     C    -3.5067501121    2.4199531131   -3.0200468245
     C    -4.5169242152    3.3246680964   -2.6942043667
     C    -5.1016238179    3.2860325438   -1.4304232439
     C    -4.6716551188    2.3490483629   -0.4926890269
     C    -4.0868735868   -1.2843949153   -0.0220539297
     C    -5.1277815805   -1.3494729855   -0.8644556704
     P    -6.0658794824   -2.9002047000   -1.0879843924
     C    -7.7558152720   -2.3306486237   -0.6154722760
     C    -8.4410227855   -1.3176414805   -1.3007131173
     C    -9.6921028581   -0.8920356068   -0.8647033889
     C   -10.2769884456   -1.4747773035    0.2606265550
     C    -9.6075109940   -2.4851218683    0.9459891258
     C    -8.3530013651   -2.9103324653    0.5092652947
     C    -6.2004998641   -2.9716030625   -2.9228407304
     C    -5.2132431474   -2.4247241441   -3.7511301039
     C    -5.2815159138   -2.5792303281   -5.1352988130
     C    -6.3344350758   -3.2856156537   -5.7115558749
     C    -7.3193164713   -3.8407627641   -4.8946872246
     C    -7.2510090723   -3.6891872105   -3.5130668853
     H     2.2756765096   -1.0414196560   -0.6880839292
     H     1.6896735612    0.7558989030    0.9245482617
     H    -0.6813420843    1.2544868881    1.4163096114
     H    -1.8973827809   -1.8057735109   -1.3534428943
     H     0.4731239903   -2.3225943936   -1.8181533774
     H    -2.2990388895    0.7723228450   -2.3494912865
     H    -3.0462448699    2.4491076897   -4.0043019276
     H    -4.8439729277    4.0609782663   -3.4237562048
     H    -5.8869170814    3.9905642761   -1.1692612224
     H    -5.1208920762    2.3318909333    0.4980336983
     H    -3.7795931996   -2.1824145591    0.5189928209
     H    -5.4531261019   -0.4602399254   -1.4079474218
     H    -7.9954250808   -0.8652704203   -2.1834546658
     H   -10.2136488604   -0.1046879708   -1.4030987114
     H   -11.2547643226   -1.1418773971    0.5991129491
     H   -10.0606890265   -2.9455295779    1.8200927263
     H    -7.8327763018   -3.7000111953    1.0468871105
     H    -4.3864416851   -1.8684499492   -3.3150789792
     H    -4.5094168994   -2.1420157272   -5.7635152345
     H    -6.3880750370   -3.4045760121   -6.7905204406
     H    -8.1446124610   -4.3947726819   -5.3350030051
     H    -8.0264658815   -4.1278621148   -2.8887189087
