45
-1.1087829194189487e+03 frame 92   xyz file generated by TeraChem
     C     1.2738761924    0.1616137054   -1.1298951791
     C     0.6641346406   -0.7049741486   -0.2230313862
     C    -0.7003500322   -0.6156869265    0.0228346409
     C    -1.4785555065    0.3517592965   -0.6301462234
     C    -0.8599943950    1.2127855087   -1.5480579288
     C     0.5062236538    1.1173125613   -1.7923056504
     C    -2.9177148451    0.4655735386   -0.3611020963
     C    -3.5651792033    0.0005479084    0.7316645023
     C    -4.9903591047    0.1651938698    0.8892075254
     C    -5.7281667869   -0.2985879618    1.9561604700
     C    -5.2214171923   -1.0248408959    3.0699088924
     C    -5.9865645718   -1.4659985147    4.1043804577
     C    -5.4829730211   -2.2117107530    5.2413541018
     C    -6.3572176742   -2.6282154408    6.2669308035
     C    -5.8280501886   -3.3337960448    7.3226001579
     C    -4.4532578488   -3.5849767637    7.2967769094
     N    -3.6618192100   -3.1731521791    6.3078962061
     N    -4.1651925021   -2.4953538159    5.2913977201
     C    -5.6226734613    0.8801836309   -0.1918104546
     C    -4.9196683664    1.3482311198   -1.2481189396
     O    -3.5741806573    1.1377380824   -1.3498532591
     C    -5.4561069947    2.0845320536   -2.3988838724
     C    -6.7100310917    2.7107985071   -2.3316975460
     C    -7.2170525583    3.3917719982   -3.4312190698
     C    -6.4806181258    3.4682577078   -4.6133280845
     C    -5.2299049080    2.8586012922   -4.6854975919
     C    -4.7183573439    2.1728309417   -3.5884796145
     H     2.3405836964    0.0874297558   -1.3231021530
     H     1.2518827072   -1.4623095735    0.2884729948
     H    -1.1647948085   -1.3168641776    0.7099022892
     H    -1.4517002837    1.9637683228   -2.0616556407
     H     0.9726166576    1.7954315774   -2.5018449822
     H    -2.9827007029   -0.4920055067    1.5002515050
     H    -6.7984365091   -0.0937916600    1.9436883651
     H    -4.1574729354   -1.2521754766    3.1103417376
     H    -7.0564157237   -1.2609972754    4.1055820845
     H    -7.4159779425   -2.3903033782    6.2090737828
     H    -6.4434204445   -3.6847276146    8.1456134151
     H    -3.9588893672   -4.1353128101    8.0928306607
     H    -6.6957730759    1.0350880910   -0.1616399825
     H    -7.2848760546    2.6843322939   -1.4109209197
     H    -8.1880355247    3.8744030326   -3.3608834886
     H    -6.8778568301    4.0048791200   -5.4705996934
     H    -4.6482248980    2.9138738775   -5.6016600635
     H    -3.7475675420    1.6924798103   -3.6538779115
