52
-1.6864553424094429e+03 frame 97   xyz file generated by TeraChem
     C    -3.8287402483    3.2166275816   -3.5289829580
     C    -3.5863700507    3.7151037738   -2.2494794030
     C    -3.4912613094    2.8479805262   -1.1646133726
     C    -3.6477755788    1.4635170151   -1.3326814781
     C    -3.8765904949    0.9746970731   -2.6262550205
     C    -3.9696698398    1.8434384277   -3.7123361907
     P    -3.3466440167    0.3333374870    0.0847230108
     C    -4.3203027669    1.0908708240    1.4521974376
     C    -5.4818927336    1.8558990382    1.2747408978
     C    -6.1765170256    2.3552758915    2.3738350980
     C    -5.7257903896    2.0932459225    3.6672707097
     C    -4.5723693132    1.3357518129    3.8574998041
     C    -3.8723944600    0.8450544814    2.7568701801
     C    -4.3695847988   -1.1724234281   -0.3289787258
     C    -5.8592660394   -0.9670323666   -0.5798494342
     P    -6.6970985692   -2.5728803776   -1.0136862123
     C    -8.4037834738   -2.0193572638   -1.4295051033
     C    -9.2530796923   -2.9369868067   -2.0681019077
     C   -10.5730324426   -2.6076239344   -2.3580423884
     C   -11.0780054377   -1.3571676266   -2.0004666336
     C   -10.2504436606   -0.4430137687   -1.3552480967
     C    -8.9234569266   -0.7692132661   -1.0726418069
     C    -5.9995660630   -2.8747729574   -2.6938532782
     C    -5.2073120237   -4.0113681444   -2.8897887719
     C    -4.6241983042   -4.2679302728   -4.1311287193
     C    -4.8300695977   -3.3892454261   -5.1908524841
     C    -5.6210601843   -2.2533692789   -5.0087457770
     C    -6.2017498514   -1.9984942760   -3.7696991899
     H    -3.9032698139    3.8936998875   -4.3757885364
     H    -3.4690777509    4.7846041770   -2.0937436873
     H    -3.2991424411    3.2542753459   -0.1742141550
     H    -3.9853456922   -0.0925277994   -2.8004882594
     H    -4.1563288397    1.4402009673   -4.7046554711
     H    -5.8402505634    2.0714283720    0.2716327274
     H    -7.0744871474    2.9484998704    2.2197967602
     H    -6.2697614215    2.4837386427    4.5234230067
     H    -4.2105714871    1.1337124178    4.8623552372
     H    -2.9641421115    0.2660213947    2.9113665912
     H    -4.2152856864   -1.8557583879    0.5156631550
     H    -3.8816840940   -1.6485564298   -1.1891464610
     H    -6.0281405947   -0.2279126730   -1.3726834593
     H    -6.3340352602   -0.5888656101    0.3324692819
     H    -8.8750448087   -3.9188034994   -2.3469767324
     H   -11.2110824070   -3.3304913805   -2.8602231635
     H   -12.1105748186   -1.1002398130   -2.2218035010
     H   -10.6334596231    0.5339530518   -1.0710960070
     H    -8.2997091787   -0.0334836541   -0.5735246324
     H    -5.0474275677   -4.7025742081   -2.0651349229
     H    -4.0117353531   -5.1553956906   -4.2682189049
     H    -4.3790774875   -3.5879813015   -6.1596688237
     H    -5.7862562205   -1.5671572459   -5.8356871288
     H    -6.8233014759   -1.1158052365   -3.6366906442
