85
-2.0737047362795684e+03 frame 59   xyz file generated by TeraChem
     C     1.3528212040    1.4792781258    1.6462632291
     C     0.9393467504    1.6463300170    0.3258960000
     C    -0.3999809659    1.4704158559   -0.0152155295
     C    -1.3454550567    1.1263507793    0.9585266524
     C    -0.9190606023    0.9625224598    2.2821690760
     C     0.4201580605    1.1366918676    2.6235282110
     C    -2.7781331838    0.9337946261    0.5976897376
     C    -3.1778803408   -0.2097027617   -0.1225070279
     C    -2.2401813308   -1.2150458284   -0.5171017841
     C    -2.6300522641   -2.3131349754   -1.2318270378
     C    -3.9901422950   -2.4784952147   -1.6034928174
     C    -4.9231637802   -1.5512423432   -1.2314699720
     C    -4.5648676190   -0.3961933722   -0.4684183618
     C    -5.5273984373    0.5510743219   -0.0641702608
     C    -5.1292356701    1.6904725531    0.6619222839
     C    -3.7381586870    1.8908384331    0.9841690768
     C    -3.3706725256    3.0811271987    1.6861911772
     C    -4.3072659388    3.9969533865    2.0769460492
     C    -5.6816933475    3.7798250546    1.7942542648
     C    -6.0759421013    2.6648815386    1.1087103282
     C    -6.9619936261    0.3390819889   -0.4093490299
     C    -7.7063618502   -0.6468758116    0.2685781263
     C    -9.0368532546   -0.9130815993   -0.0410336026
     C    -9.6006620531   -0.1583247959   -1.0562267929
     C    -8.8986085089    0.8422913742   -1.7457301874
     C    -7.5655587755    1.0929718808   -1.4181473221
     C    -9.8374021561    1.3680886215   -2.7146829488
     C    -9.8011462869    2.3576557600   -3.6975038867
     C   -10.9361659092    2.5794818300   -4.4816245774
     C   -12.0936544499    1.8034673185   -4.2690443881
     C   -12.1558047925    0.8192108882   -3.2872769127
     C   -11.0145616753    0.6286386955   -2.5261082353
     O   -10.8821320625   -0.2896174339   -1.5199219708
     C   -10.9298224968    3.6311083696   -5.5373224954
     C   -10.1238957399    3.4797685854   -6.6852630230
     C    -9.3204907194    2.3158443994   -6.8973731789
     C    -8.5313177335    2.1852253257   -8.0062071784
     C    -8.4947121328    3.2125971299   -8.9859942570
     C    -9.2648669443    4.3317023163   -8.8363667679
     C   -10.1110696316    4.5062671337   -7.6973262859
     C   -10.9242464938    5.6463991301   -7.5563952425
     C   -11.7396628724    5.7923431974   -6.4184284821
     C   -11.7316712029    4.7825450698   -5.3900341345
     C   -12.5363778111    4.9993575014   -4.2278733497
     C   -13.3225317450    6.1107809396   -4.1008074374
     C   -13.3544378306    7.0884809690   -5.1302461116
     C   -12.5827321914    6.9342361659   -6.2477368139
     C   -10.9219750398    6.6997710100   -8.6127322077
     C   -11.7789535407    6.6038490409   -9.7150436360
     C   -11.7772922459    7.5877756408  -10.7015449328
     C   -10.9173192029    8.6796305951  -10.5990906470
     C   -10.0597333723    8.7835902593   -9.5055018014
     C   -10.0626784784    7.8003963910   -8.5182680022
     H     2.3977291001    1.6155208839    1.9123823600
     H     1.6599770708    1.9152174614   -0.4421422482
     H    -0.7205465655    1.6009742446   -1.0458795018
     H    -1.6444520408    0.6931060106    3.0459936700
     H     0.7345086094    1.0021522026    3.6552982199
     H    -1.1987398938   -1.0929778950   -0.2377685646
     H    -1.8978549295   -3.0628589113   -1.5197614725
     H    -4.2884775558   -3.3472004103   -2.1843462420
     H    -5.9611765896   -1.6839721058   -1.5184641983
     H    -2.3219573680    3.2514983400    1.9068478512
     H    -4.0017309000    4.8946140600    2.6078562645
     H    -6.4205400276    4.5057034060    2.1233753647
     H    -7.1274114733    2.5045678502    0.8929298105
     H    -7.2206278621   -1.2205514599    1.0531713173
     H    -9.6034290452   -1.6772495472    0.4814264400
     H    -6.9961851876    1.8536713847   -1.9455122023
     H    -8.9040152791    2.9507192310   -3.8539837830
     H   -12.9650557406    1.9817478620   -4.8931739003
     H   -13.0506928345    0.2260745386   -3.1283333726
     H    -9.3483009606    1.5230211016   -6.1573505591
     H    -7.9308681299    1.2897332460   -8.1425995849
     H    -7.8580982218    3.1016578271   -9.8597314444
     H    -9.2464456788    5.1122158102   -9.5903702057
     H   -12.5118214156    4.2614762359   -3.4328625475
     H   -13.9239085618    6.2509037947   -3.2065064596
     H   -13.9885212465    7.9644093728   -5.0221405040
     H   -12.5973589672    7.6868367658   -7.0296822937
     H   -12.4506106544    5.7527159558   -9.7955620720
     H   -12.4494436369    7.5001590532  -11.5512891489
     H   -10.9154402939    9.4468687688  -11.3688927148
     H    -9.3857478674    9.6320022857   -9.4191096466
     H    -9.3927195141    7.8820500183   -7.6659064425
