76
-1.7689564098909786e+03 frame 80   xyz file generated by TeraChem
     C     1.0009081417   -0.0439831749    1.7724264526
     C     0.5449318736   -0.4195458779    0.5101805117
     C    -0.7526907353   -0.1039542815    0.1125977735
     C    -1.6112901172    0.5911750944    0.9720898624
     C    -1.1437218446    0.9648228500    2.2373791589
     C     0.1535963865    0.6491221134    2.6350514766
     C    -3.0021777579    0.9271795141    0.5516471491
     C    -4.0351106712   -0.0146401438    0.7205290013
     C    -3.7888454139   -1.3026670403    1.2894875359
     C    -4.7966593462   -2.2118720922    1.4530271290
     C    -6.1228311721   -1.8904649904    1.0581650676
     C    -6.4035155478   -0.6680650197    0.5137485972
     C    -5.3813651129    0.3128036455    0.3236885565
     C    -5.6634258658    1.5758229298   -0.2305049473
     C    -4.6305399631    2.5163071380   -0.4037131662
     C    -3.2842084936    2.1883905861   -0.0075635620
     C    -2.2615225409    3.1675310548   -0.2031235477
     C    -2.5420912684    4.3890196686   -0.7496655572
     C    -3.8692436164    4.7121204381   -1.1397824764
     C    -4.8777349887    3.8045516241   -0.9716755723
     C    -7.0584441097    1.9192729083   -0.6308144077
     C    -7.9157605435    2.5662809898    0.2655126507
     C    -9.2167743683    2.8865767569   -0.1138910870
     C    -9.6734298763    2.5664563876   -1.3890287881
     C    -8.8321397665    1.9191868206   -2.3015804067
     C    -7.5276277051    1.6008468952   -1.9090918156
     C    -9.3260144921    1.5812032777   -3.6660667651
     C    -9.4923016528    2.6009367740   -4.6240020415
     C    -9.1439403578    3.9588903252   -4.3426411667
     C    -9.3250227020    4.9477073187   -5.2689530333
     C    -9.8741504147    4.6429602981   -6.5424497392
     C   -10.2063212355    3.3552732977   -6.8592686697
     C   -10.0159023727    2.2858466770   -5.9296214891
     C   -10.3413829204    0.9542685029   -6.2564591467
     C   -10.1542625565   -0.0683650208   -5.3053826903
     C    -9.6493636607    0.2493888349   -3.9927772825
     C    -9.5051732126   -0.8126583952   -3.0464519911
     C    -9.8088162916   -2.1047519027   -3.3737016995
     C   -10.2775196218   -2.4221234649   -4.6759597295
     C   -10.4452269320   -1.4354140278   -5.6070698340
     C   -10.8886076417    0.6289071477   -7.6038518453
     C   -10.0597146607    0.6256377061   -8.7322579019
     C   -10.5749774772    0.3223762287   -9.9905666435
     C   -11.9273053375    0.0198135715  -10.1390109526
     C   -12.7612741375    0.0206530565   -9.0223310547
     C   -12.2452460854    0.3220169616   -7.7640878109
     H     2.0129867982   -0.2904107867    2.0825722371
     H     1.2004414497   -0.9591903206   -0.1684977002
     H    -1.1070800828   -0.3978321184   -0.8723774168
     H    -1.8046514274    1.5037375613    2.9117858157
     H     0.5019179462    0.9450772982    3.6212495397
     H    -2.7769652898   -1.5497831190    1.5948756819
     H    -4.5860215494   -3.1851241665    1.8882523813
     H    -6.9161833823   -2.6208996004    1.1924469404
     H    -7.4192485895   -0.4248714907    0.2170287172
     H    -1.2457619388    2.9234018177    0.0916319313
     H    -1.7479008815    5.1175228561   -0.8893668206
     H    -4.0800828310    5.6852108393   -1.5752742788
     H    -5.8903498791    4.0530139666   -1.2739301356
     H    -7.5590605065    2.8169142304    1.2612301604
     H    -9.8784429405    3.3868124592    0.5883750288
     H   -10.6894558859    2.8163911172   -1.6838262171
     H    -6.8655285689    1.0997849712   -2.6112125503
     H    -8.7249394828    4.1975878512   -3.3703782038
     H    -9.0503027541    5.9720858824   -5.0318796920
     H   -10.0279707293    5.4382628715   -7.2668860936
     H   -10.6240001918    3.1274797918   -7.8345489690
     H    -9.1451695299   -0.5762359351   -2.0501752697
     H    -9.6896602316   -2.8946083664   -2.6368626449
     H   -10.5038402274   -3.4541717367   -4.9303015198
     H   -10.8042017959   -1.6831010614   -6.6008071505
     H    -9.0042518847    0.8610832408   -8.6191500585
     H    -9.9173068050    0.3216013242  -10.8560160156
     H   -12.3295182254   -0.2155731700  -11.1208655474
     H   -13.8174825353   -0.2127381883   -9.1294109772
     H   -12.8979523785    0.3228472498   -6.8944621914
