75
-1.7849829748778293e+03 frame 59   xyz file generated by TeraChem
     C     1.4807730487    0.3843265162    0.3769651968
     C     0.7692315744   -0.4146500714   -0.5163771052
     C    -0.6050927434   -0.2435939022   -0.6665418158
     C    -1.2869308725    0.7307309914    0.0722988153
     C    -0.5626637218    1.5288589727    0.9660406947
     C     0.8111410588    1.3562336562    1.1182836813
     C    -2.7572133087    0.9153149780   -0.0874053604
     C    -3.6500927282   -0.0153862261    0.4809868264
     C    -3.1876815872   -1.1414598501    1.2301522596
     C    -4.0611124635   -2.0423848407    1.7731609158
     C    -5.4614891749   -1.8746944076    1.6050199169
     C    -5.9484014868   -0.8042441227    0.9080285691
     C    -5.0717957411    0.1646558033    0.3280165935
     C    -5.5632764835    1.2741724151   -0.3816120099
     C    -4.6768340234    2.2034594505   -0.9526945081
     C    -3.2550314471    2.0212966280   -0.8055046149
     C    -2.3843723215    2.9762918045   -1.4161577939
     C    -2.8772150659    4.0465512548   -2.1098208648
     C    -4.2792616097    4.2322259855   -2.2422486690
     C    -5.1485248391    3.3375177568   -1.6833047999
     C    -7.0378218822    1.4650858890   -0.5286361764
     C    -7.7724835808    2.0992413110    0.4758315916
     C    -9.1443498782    2.2463554175    0.3058633996
     C    -9.7322837626    1.7587677148   -0.8550472264
     C    -8.9221789143    1.1401776281   -1.8120502028
     N    -7.5984688116    0.9958504030   -1.6517145287
     C    -9.5236403382    0.5826826597   -3.0585978094
     C   -10.0491729076    1.4491896044   -4.0361690111
     C    -9.9667202038    2.8713025603   -3.9094720826
     C   -10.4930891355    3.7027316716   -4.8583462386
     C   -11.1433296874    3.1657765467   -6.0008083455
     C   -11.2292907744    1.8122720959   -6.1707661240
     C   -10.6778000691    0.9046167063   -5.2136291884
     C   -10.7490460700   -0.4907226846   -5.3933948259
     C   -10.2003338287   -1.3548653207   -4.4251555029
     C    -9.5840615038   -0.8127633805   -3.2405769633
     C    -9.0680570559   -1.7243301310   -2.2673187080
     C    -9.1302048464   -3.0767134195   -2.4564126819
     C    -9.7132216973   -3.6102467215   -3.6360188830
     C   -10.2309838468   -2.7750846683   -4.5861634790
     C   -11.4145064420   -1.0540365023   -6.6024171947
     C   -10.7706286225   -1.0452055509   -7.8453254670
     C   -11.3979562889   -1.5719252322   -8.9722938344
     C   -12.6784790538   -2.1131394942   -8.8720525305
     C   -13.3282249246   -2.1258083746   -7.6391477972
     C   -12.6999956642   -1.6013302772   -6.5120586775
     H     2.5528444610    0.2502444413    0.4947309949
     H     1.2848687703   -1.1734200737   -1.0993378045
     H    -1.1598422936   -0.8673277267   -1.3630321692
     H    -1.0845542344    2.2879579402    1.5433925418
     H     1.3588159124    1.9819714276    1.8182580777
     H    -2.1189162532   -1.2725554846    1.3649165034
     H    -3.6850488604   -2.8906738198    2.3386718462
     H    -6.1463792890   -2.5998121733    2.0362707950
     H    -7.0203702916   -0.6777645159    0.7893695215
     H    -1.3122938211    2.8365873114   -1.3225879332
     H    -2.1950950125    4.7587741497   -2.5662437308
     H    -4.6592238718    5.0869822858   -2.7952722077
     H    -6.2192378803    3.4784803075   -1.7952856901
     H    -7.2725966722    2.4637001420    1.3681713190
     H    -9.7475778049    2.7301186722    1.0693319058
     H   -10.8010134364    1.8473907885   -1.0247455401
     H    -9.4678312539    3.2926703566   -3.0423748504
     H   -10.4142619359    4.7800916132   -4.7400895341
     H   -11.5690269282    3.8358689050   -6.7428372632
     H   -11.7219414261    1.4044541667   -7.0473774433
     H    -8.6099973608   -1.3262791566   -1.3682240189
     H    -8.7286063862   -3.7489544901   -1.7028984198
     H    -9.7465077794   -4.6866946559   -3.7811197058
     H   -10.6761401065   -3.1866587172   -5.4862913202
     H    -9.7724059464   -0.6218213137   -7.9244382560
     H   -10.8842698639   -1.5600187861   -9.9301023175
     H   -13.1681714877   -2.5228240107   -9.7515794720
     H   -14.3274159583   -2.5449571638   -7.5530339997
     H   -13.2071706449   -1.6117331453   -5.5504776780
