94
-2.4578140451630097e+03 frame 77   xyz file generated by TeraChem
     C     0.5016332891   -1.7592521262    1.0547231902
     C    -0.5371703742   -1.9318730311    1.9690759139
     C    -1.8218980483   -1.5023017028    1.6580534986
     C    -2.0878990594   -0.8867230094    0.4266216928
     C    -1.0388196646   -0.7216607548   -0.4877142986
     C     0.2455357400   -1.1558136771   -0.1750973741
     C    -3.4553347973   -0.4271928212    0.1103187226
     C    -3.7132231126    0.5972204465   -0.8161998047
     C    -5.0217520490    0.9514358350   -1.0408580037
     C    -6.0141768764    0.2691223720   -0.3153402936
     N    -5.7103245662   -0.6968975982    0.5722321377
     N    -4.4542722872   -1.0343398517    0.7703401881
     C    -7.3916783055    0.5792164736   -0.4813365835
     C    -8.5634593047    0.8645357960   -0.6391201796
     C    -9.9314763330    1.1979105144   -0.8208238445
     C   -10.9393287061    0.5004377627   -0.1309961839
     C   -12.2726507436    0.8324149248   -0.3034467403
     C   -12.6395707746    1.8641519322   -1.1793596537
     C   -11.6397245645    2.5584205325   -1.8755097516
     C   -10.3058187270    2.2345333923   -1.6946788783
     N   -13.9975930830    2.2005283279   -1.3587273913
     C   -14.3758505819    3.5546188782   -1.4643607682
     C   -15.3592477090    3.9503106974   -2.3830444482
     C   -15.7283838265    5.2808718948   -2.4852919895
     C   -15.1168283941    6.2594226025   -1.6812871695
     C   -14.1285818366    5.8569940358   -0.7648456454
     C   -13.7684761686    4.5247143856   -0.6539067486
     C   -15.4850754993    7.6255988843   -1.7963579147
     C   -15.8008505078    8.7954278266   -1.9026193241
     C   -16.1452683281   10.1699018501   -2.0174804636
     C   -15.5040941923   11.1503762853   -1.2401291118
     C   -15.8860884656   12.4575993384   -1.4234043828
     C   -16.8967003667   12.7259384847   -2.3621418064
     N   -17.4662277234   11.7376784513   -3.0702349558
     N   -17.1016279349   10.4837002918   -2.9121984916
     C   -17.3808985483   14.0930001213   -2.6418568527
     C   -17.9915255368   14.3820034727   -3.8706599746
     C   -18.4430870334   15.6664512044   -4.1497772380
     C   -18.2973457800   16.6826142191   -3.2058340404
     C   -17.6991194536   16.4035543698   -1.9784921733
     C   -17.2434115244   15.1193135668   -1.6975371066
     C   -14.9701194555    1.1849672958   -1.4513316459
     C   -16.2338642063    1.3558269043   -0.8670043512
     C   -17.1974101783    0.3674124243   -0.9762343347
     C   -16.9229885116   -0.8296019502   -1.6615093191
     C   -15.6494664390   -1.0008734213   -2.2334193728
     C   -14.6902964492   -0.0075863191   -2.1349377675
     C   -17.9079531925   -1.8443166530   -1.7851064133
     C   -18.7407134348   -2.7219135709   -1.9109610091
     C   -19.7220162926   -3.7393613090   -2.0613345209
     C   -21.0087302184   -3.6058473287   -1.5108541118
     C   -21.8983143759   -4.6329650362   -1.7164749669
     C   -21.4619151489   -5.7497463203   -2.4490485042
     N   -20.2165732210   -5.8086198494   -2.9470676852
     N   -19.3593522591   -4.8275481537   -2.7672211534
     C   -22.3324086394   -6.9092923281   -2.7314271401
     C   -22.0511859800   -7.7453938352   -3.8215616866
     C   -22.8644686679   -8.8366366598   -4.1027789465
     C   -23.9689548352   -9.1148246344   -3.2979427598
     C   -24.2530395309   -8.2940638109   -2.2081352695
     C   -23.4423079545   -7.1989252609   -1.9260090848
     H     1.5057777644   -2.0956009470    1.2986514627
     H    -0.3445317660   -2.3996860490    2.9308721130
     H    -2.6329350316   -1.6313746468    2.3675697741
     H    -1.2257495772   -0.2739283396   -1.4598194636
     H     1.0467984071   -1.0276268780   -0.8977678346
     H    -2.9042399325    1.1096302832   -1.3264372181
     H    -5.2934206222    1.7360205094   -1.7395431096
     H   -10.6648239305   -0.2953236520    0.5548174053
     H   -13.0394690053    0.2963203085    0.2472225112
     H   -11.9165957372    3.3499603627   -2.5649083446
     H    -9.5397209052    2.7747017852   -2.2426709915
     H   -15.8273189004    3.2091970811   -3.0233843408
     H   -16.4855025741    5.5773834594   -3.2048947876
     H   -13.6549765461    6.5989220307   -0.1290364764
     H   -13.0142639800    4.2259637026    0.0675330061
     H   -14.7271140100   10.8718955681   -0.5356488200
     H   -15.4040354049   13.2584014358   -0.8724053796
     H   -18.0994783324   13.5887007840   -4.6033129554
     H   -18.9068369743   15.8766915751   -5.1098545108
     H   -18.6504252494   17.6867517863   -3.4248558075
     H   -17.5915845387   17.1866753826   -1.2329248022
     H   -16.7997780308   14.9150398372   -0.7270880122
     H   -16.4562732413    2.2689120736   -0.3235174252
     H   -18.1713238602    0.5107134182   -0.5179677425
     H   -15.4251908408   -1.9157876530   -2.7734914025
     H   -13.7191857034   -0.1482603058   -2.5992991469
     H   -21.2803930094   -2.7125059233   -0.9579108150
     H   -22.9136578829   -4.5704238453   -1.3392934222
     H   -21.1918928361   -7.5232245459   -4.4457660117
     H   -22.6378848582   -9.4706863549   -4.9557629609
     H   -24.6042744886   -9.9684881560   -3.5182468198
     H   -25.1055894448   -8.5095293753   -1.5698428458
     H   -23.6660344539   -6.5833983291   -1.0593266901
