32
-7.2683981224726153e+02 frame 17   xyz file generated by TeraChem
     C     2.3269397000   -1.2721340220    0.4582190455
     C     3.5441961637   -1.6366185633    1.2994232020
     C     3.5894299875   -0.7659055952    2.5522758984
     C     3.4090820666    0.7055214091    2.2663557158
     C     2.8052705988    1.1589109892    1.0394350577
     C     2.4436590838    0.1654058328   -0.0369719649
     N     2.5744979249    2.4220683773    0.7601255605
     C     2.9280120811    3.3811498449    1.6638579041
     C     3.5558777552    3.0347737302    2.9078894771
     C     3.7826717004    1.6589266345    3.1734180684
     C     3.8996352242    4.0609550827    3.7851616438
     C     3.6258944328    5.3848823482    3.4393372236
     C     2.9918983979    5.6249279780    2.1689270483
     N     2.6587122342    4.6433240895    1.3156583757
     C     2.7042613625    6.9727015476    1.8016678246
     C     3.0235382759    8.0073841770    2.6389142132
     C     3.6498645008    7.7657990006    3.8938801689
     C     3.9436881565    6.4879829536    4.2835404036
     H     1.4176561755   -1.3883091316    1.0644545626
     H     2.2251902317   -1.9458812312   -0.3999509226
     H     4.4565577801   -1.4872237187    0.7055724994
     H     3.5192133924   -2.6928986651    1.5896294174
     H     4.5243918020   -0.9167762152    3.1045701949
     H     2.7814313205   -1.0845341181    3.2274239631
     H     3.2348900361    0.2167936267   -0.8001652273
     H     1.5257546867    0.5046940998   -0.5291676151
     H     4.2534168939    1.3752125104    4.1136071475
     H     4.3767194958    3.8301335734    4.7360677787
     H     2.2257955881    7.1447963427    0.8416515639
     H     2.7984451556    9.0298105488    2.3471167192
     H     3.8928757916    8.6051033133    4.5394139233
     H     4.4224813203    6.2898724304    5.2396511164
