82
-2.0971620768461107e+03 frame 68   xyz file generated by TeraChem
     C     5.0809469756    1.6140455930   -0.7549050086
     C     5.0626908891    0.3561986626   -0.1541144364
     C     3.8606265981   -0.3245606633    0.0128806642
     C     2.6714431607    0.2714284263   -0.4076004160
     C     2.6802139184    1.5296266970   -1.0097114353
     C     3.8902949043    2.1959729021   -1.1860559755
     N     1.4372715485   -0.4217899851   -0.2530703413
     C     0.8624779020   -0.9206479673    0.9033476427
     N    -0.2009758192   -1.6585445746    0.6636095447
     C    -0.3497877379   -1.6584675984   -0.7048490187
     C     0.6672481374   -0.8889045179   -1.3048840943
     C     0.7785876279   -0.7362884693   -2.6859734216
     C    -0.1854373914   -1.3693119574   -3.4605776862
     C    -1.2180187115   -2.1294443737   -2.8787286834
     C    -1.3136140812   -2.2852994890   -1.5033780279
     C     1.3451318311   -0.6424941822    2.2608187099
     C     1.9326278318    0.5778745272    2.6242810529
     C     2.3295746473    0.8035225184    3.9340923201
     C     2.1581990564   -0.1807031459    4.9153131579
     C     1.5624744261   -1.3956650125    4.5531995043
     C     1.1568439095   -1.6208417745    3.2464510599
     C     2.5922107793    0.0636718766    6.3100291030
     N     3.1353474317    1.2298133632    6.5955930171
     C     3.4747785422    1.4532036519    7.8899240975
     C     4.0100656834    2.7149103116    8.2446929335
     C     4.3103908758    2.9910881379    9.5568989028
     C     4.0787249491    2.0293370795   10.5656902004
     C     3.5755051208    0.7895968300   10.2459327546
     C     3.2875263530    0.4645574262    8.8989305759
     C     2.7747325143   -0.7891888571    8.4407113018
     N     2.4106173044   -0.9592426709    7.1842895093
     C     2.6154655842   -1.9713215192    9.3195381307
     C     3.6157005522   -2.3694331298   10.2144199049
     C     3.4693022003   -3.5246038534   10.9729144534
     C     2.3133308466   -4.3060766892   10.8596685609
     C     1.3055850753   -3.9003015141    9.9727838399
     C     1.4610858935   -2.7570807652    9.2052624941
     C     2.0873964707   -5.5124089446   11.6650323921
     N     0.8937133175   -5.8740700035   12.0842375801
     C     1.0938722555   -7.0188873585   12.8224345306
     C     2.4634833172   -7.3512752198   12.8434731302
     N     3.0868115205   -6.3691154489   12.0926236886
     C     4.4607076496   -6.3913880883   11.7179370182
     C     5.4407195101   -6.2755419076   12.7036897643
     C     6.7848849392   -6.3114938340   12.3410496915
     C     7.1455813485   -6.4533816473   11.0024355676
     C     6.1596646059   -6.5721461449   10.0240319032
     C     4.8138369267   -6.5515105347   10.3779161800
     C     2.9528196160   -8.4799333524   13.4992956028
     C     2.0184336392   -9.2681991450   14.1594511975
     C     0.6478525886   -8.9453850869   14.1606890552
     C     0.1692182557   -7.8254081151   13.4962808466
     H     6.0225760253    2.1391019643   -0.8888044116
     H     5.9891018697   -0.1040335237    0.1778448294
     H     3.8379162098   -1.3118692213    0.4650815996
     H     1.7442463843    1.9806524215   -1.3270254784
     H     3.8992581345    3.1760665601   -1.6545809014
     H     1.5758318775   -0.1522586443   -3.1358402377
     H    -0.1408521539   -1.2746335436   -4.5420876362
     H    -1.9517009294   -2.6049222300   -3.5239791810
     H    -2.1044978176   -2.8768858561   -1.0508844814
     H     2.0611402617    1.3654572255    1.8889495851
     H     2.7751644031    1.7532693817    4.2107752133
     H     1.4244557221   -2.1629665954    5.3072984618
     H     0.6926600201   -2.5629639082    2.9717682626
     H     4.1549803365    3.4485526961    7.4573362597
     H     4.7135578815    3.9631939398    9.8274734015
     H     4.2926164532    2.2756159396   11.6016639210
     H     3.3793547136    0.0654839278   11.0296078876
     H     4.5313000882   -1.7921366495   10.3008389697
     H     4.2576729959   -3.8077179256   11.6622006320
     H     0.4040378755   -4.4989469429    9.8880313370
     H     0.6845651765   -2.4597970290    8.5070817265
     H     5.1469915114   -6.1477151221   13.7417614274
     H     7.5496929477   -6.2194920422   13.1070331602
     H     8.1949480789   -6.4741796950   10.7219567695
     H     6.4371492749   -6.6902521825    8.9803768243
     H     4.0374630598   -6.6549702040    9.6254902595
     H     4.0089580190   -8.7320701391   13.4972665834
     H     2.3549418753  -10.1559610036   14.6878266488
     H    -0.0465327880   -9.5907648024   14.6916962606
     H    -0.8881154536   -7.5761711070   13.4887533635
