76
-1.9104571787167552e+03 frame 84   xyz file generated by TeraChem
     C    -8.4863695097   -1.7914050961    5.6590278615
     C    -7.8361445939   -3.0233150486    5.7067775863
     C    -6.4685425602   -3.0854615855    5.9588866296
     C    -5.7441757764   -1.9059123224    6.1449368445
     C    -6.3896702726   -0.6687343226    6.0875685966
     C    -7.7612624513   -0.6172868121    5.8541214545
     N    -4.3499639286   -1.9667820755    6.3935819914
     C    -3.4095135578   -2.5690504641    5.5757166350
     C    -3.5774571828   -3.1930447838    4.3363409629
     C    -2.4509906233   -3.6989804201    3.7106498005
     C    -1.1658566308   -3.5985762009    4.2867270498
     C    -1.0117444362   -2.9624722440    5.5208896244
     C    -2.1297281204   -2.4414800408    6.1671941397
     C    -2.3167129001   -1.7251400172    7.4076507509
     C    -3.6997859871   -1.4488578057    7.5111101446
     C    -4.2333514730   -0.7823976862    8.6142737985
     C    -3.3507573973   -0.3795017587    9.6102649896
     C    -1.9735204227   -0.6348309817    9.5179829308
     C    -1.4503545549   -1.3095557264    8.4221780787
     C     0.0056951998   -4.1590476775    3.5814154372
     N    -0.1939571015   -4.7736939031    2.4313211680
     C     0.9028022870   -5.2291651044    1.7751057468
     C     0.7336935068   -5.8388526091    0.5082832760
     C     1.8293873137   -6.2539089633   -0.2107805564
     C     3.1343484021   -6.0694474925    0.2970884109
     C     3.3247691263   -5.4968829098    1.5340657528
     C     2.2145557901   -5.0898164946    2.3109465181
     C     2.2889218235   -4.4892268132    3.6095411838
     N     1.2084269149   -4.0130497470    4.1991909255
     C     3.5559505906   -4.3530179250    4.3604087455
     C     4.4714837523   -5.4230351893    4.4587725987
     C     5.6375515989   -5.3227336027    5.2028913911
     C     5.8978259604   -4.1121588734    5.8469662749
     C     4.9856212973   -3.0304263067    5.7786471121
     C     3.8117831886   -3.1612383421    5.0426908288
     C     5.5454928928   -1.9648174963    6.5762560220
     C     5.1281439399   -0.6665115685    6.8808572973
     C     5.9345221989    0.1257210472    7.6877197609
     C     7.1521436570   -0.3657543723    8.1847473890
     C     7.5883274108   -1.6540078861    7.8971873806
     C     6.7681476206   -2.4484013721    7.0957205506
     N     6.9696867617   -3.7509182803    6.6455608817
     C     8.0782944963   -4.5747606332    6.9659312929
     C     8.3864064159   -4.8348064791    8.3031303607
     C     9.4777743611   -5.6401816566    8.6154618273
     C    10.2499828409   -6.2023798932    7.6003493708
     C     9.9337086988   -5.9468665809    6.2673274788
     C     8.8562470555   -5.1261053621    5.9455206086
     H    -9.5552743820   -1.7467851831    5.4697954015
     H    -8.3959156131   -3.9429480124    5.5601913750
     H    -5.9603237520   -4.0435299833    6.0210378431
     H    -5.8153892701    0.2443270601    6.2165188812
     H    -8.2610180803    0.3466046060    5.8131745149
     H    -4.5562130437   -3.2777146901    3.8747600594
     H    -2.5456965178   -4.1900723931    2.7478489239
     H    -0.0227315931   -2.8802818517    5.9602528446
     H    -5.2977322666   -0.5847129150    8.6952685311
     H    -3.7400039134    0.1438159821   10.4795460864
     H    -1.3127060157   -0.3038746882   10.3142914314
     H    -0.3850405816   -1.5151343653    8.3535170653
     H    -0.2765011983   -5.9469909350    0.1243529656
     H     1.6947719504   -6.7127554874   -1.1867022314
     H     3.9912274659   -6.3740192946   -0.2968663411
     H     4.3301794653   -5.3378557974    1.9094022715
     H     4.2411642004   -6.3665957458    3.9731112405
     H     6.3163442574   -6.1655191147    5.2851512083
     H     3.0951708292   -2.3467382565    4.9874732895
     H     4.1894630954   -0.2848270950    6.4874383265
     H     5.6243617549    1.1370686336    7.9348907618
     H     7.7714025923    0.2737133382    8.8080830622
     H     8.5326178734   -2.0259808321    8.2822708711
     H     7.7657776222   -4.4145357311    9.0893555746
     H     9.7156447046   -5.8387645437    9.6568383486
     H    11.0960582520   -6.8374678938    7.8475769641
     H    10.5348452983   -6.3773201433    5.4711656367
     H     8.6200065859   -4.9040197391    4.9087686425
