15
-3.7944458580879297e+02 frame 9   xyz file generated by TeraChem
     C     2.1791771217   -0.6684414340   -0.0054228734
     C     2.1422882354    0.7391345598   -0.0063226803
     C     0.9394456972    1.4320458068   -0.0057691539
     C    -0.2467462429    0.6892585872   -0.0043007543
     C    -0.1887195860   -0.7226662034   -0.0033831707
     C     1.0152945675   -1.4263941846   -0.0039324645
     N    -1.5048163181   -1.1219705027   -0.0015771809
     C    -2.2648120070    0.0076569504   -0.0020907194
     N    -1.5647001978    1.1156572161   -0.0035561667
     H     3.1411587027   -1.1738956314   -0.0058815250
     H     3.0781719153    1.2914169575   -0.0074668957
     H     0.9104786507    2.5182440545   -0.0064721150
     H     1.0427201698   -2.5122668077   -0.0031697333
     H    -1.8500127328   -2.0714204159   -0.0015570502
     H    -3.3467546220   -0.0460591779   -0.0010675169
