48
-1.1526053343611388e+03 frame 14   xyz file generated by TeraChem
     C     0.7122317148   -3.6618303557   -0.0014933199
     C    -0.7060601686   -3.6629084064   -0.0028891198
     C    -1.3965934037   -2.4810394523   -0.0029055533
     C    -0.7150261829   -1.2310109390   -0.0015489376
     C     0.7179942237   -1.2296999324   -0.0001646874
     C     1.4010098348   -2.4789273428   -0.0001823244
     C     1.4233488688    0.0015675828    0.0011543385
     C     2.8394897904    0.0024421637    0.0024207543
     C     4.0583188274    0.0036612657    0.0032509686
     C     5.4801322597    0.0050497241    0.0039320877
     C     6.1912306555    1.2189348014    0.0049646178
     C     7.5805241054    1.2143375098    0.0055440980
     C     8.2804169570    0.0075940611    0.0051213064
     C     7.5827571343   -1.2004425171    0.0041104976
     C     6.1934841537   -1.2075145455    0.0035106495
     C     0.7161058711    1.2317726082    0.0011489380
     C    -0.7169617114    1.2305361090   -0.0002351558
     C    -1.4221953021   -0.0008082162   -0.0015539709
     C    -2.8383226581   -0.0019973308   -0.0028191616
     C    -4.0571540185   -0.0035506304   -0.0036571231
     C    -5.4789688355   -0.0052874169   -0.0043472957
     C    -6.1926528328    1.2070815606   -0.0039281139
     C    -7.5819263448    1.1996773280   -0.0045370877
     C    -8.2792911745   -0.0085301794   -0.0055549768
     C    -7.5790866694   -1.2150932569   -0.0059758915
     C    -6.1897903929   -1.2193358351   -0.0053872640
     C    -1.4004585937    2.4795084946   -0.0002173763
     C    -0.7117140750    3.6624130855    0.0010934271
     C     0.7065771999    3.6636074254    0.0024887527
     C     1.3974285876    2.4819312510    0.0025055047
     H     1.2514824540   -4.6050858219   -0.0014888116
     H    -1.2439087761   -4.6069632261   -0.0039433728
     H    -2.4824883814   -2.4770717520   -0.0039830309
     H     2.4868939195   -2.4734845238    0.0008786400
     H     5.6437909881    2.1570613971    0.0052944917
     H     8.1201961308    2.1574469513    0.0063295736
     H     9.3669781866    0.0086010990    0.0055812868
     H     8.1241419204   -2.1425678417    0.0037786455
     H     5.6477217166   -2.1466160007    0.0027196262
     H    -5.6471291606    2.1463224542   -0.0031315948
     H    -8.1235413354    2.1416718974   -0.0042066739
     H    -9.3658530247   -0.0098091690   -0.0060219971
     H    -8.1185169287   -2.1583424037   -0.0067668667
     H    -5.6421195530   -2.1573282512   -0.0057155613
     H    -2.4863519754    2.4738689757   -0.0012778596
     H    -1.2510391824    4.6056237666    0.0010892237
     H     1.2442628408    4.6077521028    0.0035427847
     H     2.4833201570    2.4782056623    0.0035829349
