98
-2.3066732097576396e+03 frame 78   xyz file generated by TeraChem
     C     1.3911780575   -1.4086595390    1.0586749649
     C     0.7338256099   -1.9583010398   -0.0405853503
     C    -0.5714991938   -1.5745115330   -0.3400181761
     C    -1.2386386460   -0.6342641911    0.4546104383
     C    -0.5685601643   -0.0889800474    1.5570125275
     C     0.7360570736   -0.4730843109    1.8573357405
     C    -2.6331968114   -0.2159547839    0.1386309433
     C    -3.7054921644   -1.1048691381    0.3557942028
     C    -3.5001003440   -2.4147776873    0.8905473229
     C    -4.5436003988   -3.2758186646    1.0873689684
     C    -5.8688917796   -2.8819805282    0.7624077263
     C    -6.1139768029   -1.6311042822    0.2685416282
     C    -5.0550117910   -0.6943867791    0.0575867957
     C    -5.3051511363    0.6031007031   -0.4284759502
     C    -4.2343546118    1.4919257681   -0.6462131056
     C    -2.8829791202    1.0751635847   -0.3702279191
     C    -1.8234671228    1.9962903144   -0.6399637907
     C    -2.0750375608    3.2499082409   -1.1242882460
     C    -3.4094418984    3.6684662149   -1.3709536254
     C    -4.4521572388    2.8151600729   -1.1401403594
     C    -6.7054088969    1.0498614931   -0.6854689636
     C    -7.4805919645    1.4962082040    0.3635093268
     C    -8.8021688063    1.9395402503    0.1601245933
     C    -9.3723482481    1.9477772628   -1.0960266192
     C    -8.5975158275    1.5021074218   -2.2132177847
     C    -7.2583991106    1.0402507226   -2.0031557174
     C    -6.5077973985    0.5884428354   -3.1199916954
     C    -7.0386229166    0.6068259176   -4.3869580344
     C    -8.3498150527    1.0848450483   -4.5987592764
     C    -9.1079856179    1.5188600028   -3.5382349458
     C   -10.7837764699    2.3892049349   -1.2677162662
     C   -11.7563318023    1.4577262358   -1.5670776681
     C   -13.1057740880    1.8289163149   -1.7280089030
     C   -13.5066494915    3.1407196393   -1.5925869346
     C   -12.5320465717    4.1362139975   -1.2750423370
     C   -11.1587372362    3.7614845239   -1.1169514532
     C   -10.2078450974    4.7775567343   -0.8351899538
     C   -10.5889340614    6.0905458520   -0.6969411750
     C   -11.9457865803    6.4556445392   -0.8336675672
     C   -12.8909688682    5.5006082361   -1.1184849323
     C   -14.9377677209    3.5046280156   -1.8070171364
     C   -15.8715366827    3.3639594335   -0.7632003792
     C   -15.4807657124    2.9047650762    0.5329973736
     C   -16.3939882124    2.7539987411    1.5388262371
     C   -17.7645211137    3.0492629990    1.3111431817
     C   -18.1796904939    3.4999242749    0.0891595801
     C   -17.2582216076    3.6880197320   -0.9877565292
     C   -17.6771985747    4.1614274885   -2.2469756944
     C   -16.7393204710    4.3131926571   -3.2881279202
     C   -15.3566974273    3.9732660114   -3.0675759855
     C   -14.4364546797    4.1276057648   -4.1504301656
     C   -14.8421201275    4.6026093769   -5.3662299605
     C   -16.2004143517    4.9586299892   -5.5780805294
     C   -17.1155301200    4.8169371488   -4.5723183112
     C   -19.1079434491    4.5061166261   -2.4787728627
     C   -19.6542703337    5.6789391517   -1.9432835682
     C   -20.9895133115    6.0065556483   -2.1673359306
     C   -21.7989696831    5.1644561218   -2.9276010367
     C   -21.2660292593    3.9928947187   -3.4626551554
     C   -19.9300152715    3.6669121446   -3.2405594774
     H     2.4094434982   -1.7083939971    1.2920165699
     H     1.2387195687   -2.6869410592   -0.6695687313
     H    -1.0807520011   -2.0030649367   -1.1997929519
     H    -1.0790909811    0.6397030628    2.1819297941
     H     1.2400742708   -0.0408894793    2.7179416681
     H    -2.4900409358   -2.7204659921    1.1429680061
     H    -4.3611812326   -4.2663233762    1.4955304211
     H    -6.6899490410   -3.5777730660    0.9131545986
     H    -7.1291120109   -1.3297633519    0.0296384258
     H    -0.8011986572    1.6818767212   -0.4569007519
     H    -1.2516544695    3.9306378738   -1.3232735906
     H    -3.5988987689    4.6696737870   -1.7486178730
     H    -5.4710036725    3.1364238334   -1.3326495645
     H    -7.0654778691    1.5053916746    1.3680588101
     H    -9.3855334710    2.2760137477    1.0134497788
     H    -5.4969934223    0.2263941141   -2.9562130956
     H    -6.4475021271    0.2576480843   -5.2293477605
     H    -8.7603817330    1.1095032843   -5.6046546840
     H   -10.1159577767    1.8852543217   -3.7062388934
     H   -11.4770358845    0.4135011045   -1.6820846608
     H   -13.8418850222    1.0664316542   -1.9693953537
     H    -9.1627038911    4.5030134972   -0.7300408053
     H    -9.8434432213    6.8517572589   -0.4830245227
     H   -12.2403290035    7.4951865897   -0.7172642820
     H   -13.9346324065    5.7786862523   -1.2316427458
     H   -14.4347560128    2.6719950184    0.7070675701
     H   -16.0740574244    2.4033906470    2.5164491646
     H   -18.4844788929    2.9138317676    2.1138315100
     H   -19.2285203754    3.7218653887   -0.0794365426
     H   -13.3970126555    3.8578574546   -3.9916634307
     H   -14.1241789785    4.7124971984   -6.1746184857
     H   -16.5106617464    5.3460454582   -6.5448561983
     H   -18.1518102261    5.0925193522   -4.7393422292
     H   -19.0242086323    6.3373595385   -1.3502708550
     H   -21.3971336622    6.9226495091   -1.7476618810
     H   -22.8408077673    5.4198317910   -3.1022584967
     H   -21.8913653177    3.3295527338   -4.0545708792
     H   -19.5146851246    2.7537377192   -3.6597885465
