45
-1.5058649092803589e+03 frame 42   xyz file generated by TeraChem
     O     1.0416119043    0.8479421887   -1.3401435635
     N     2.0764253113    0.4456604480   -0.7038434612
     C     2.4357454111   -0.8116887373   -0.5627033219
     C     1.7800457838   -1.9571770345   -1.1379931014
     C     0.6448658586   -1.9216725854   -1.9672401747
     C     0.1017708299   -3.0927214864   -2.4773140131
     C     0.6372696721   -4.3484536479   -2.1575160460
     C     1.7655105221   -4.3858188305   -1.3131709628
     C     2.3335054819   -3.2186530827   -0.8360415017
     S     2.3745187939   -5.9551673687   -0.7663992624
     C     2.0806139196   -6.8771808769   -2.2488385203
     C     0.9350289069   -6.5941694933   -3.0113788885
     N     0.0824265391   -5.5373429064   -2.6378360554
     C    -1.2405909479   -5.4862759237   -3.2311270870
     C     0.6750018668   -7.3857673856   -4.1365911363
     C     1.5162314089   -8.4456192252   -4.4683676420
     C     2.6493457165   -8.7156841912   -3.7081842452
     C     2.9372774342   -7.9146702583   -2.6052622334
     C     2.8633101251    1.4838507397   -0.0721775662
     C     2.1835033430    2.6153802074    0.3779101217
     C     2.8958200531    3.6365113534    0.9941987257
     C     4.2774639663    3.5402963830    1.1453927987
     C     4.9572715498    2.4165087857    0.6659571857
     C     4.2415718744    1.3860100342    0.0482294757
     C     6.4426743692    2.2674883118    0.7639082046
     O     6.9940141780    1.2962941114    0.2695582095
     C     7.2309027975    3.3314066513    1.4796763156
     H     3.3027053250   -0.9802139953    0.0636865878
     H     0.2062748276   -0.9653224352   -2.2183415140
     H    -0.7534366190   -3.0224366213   -3.1405287502
     H     3.2102610901   -3.2819612676   -0.1957455581
     H    -1.6630159825   -6.4933804406   -3.2394044516
     H    -1.2409213650   -5.0940055941   -4.2578960934
     H    -1.8819428389   -4.8547807472   -2.6126548857
     H    -0.1861561791   -7.1742990487   -4.7609389193
     H     1.2836737269   -9.0523532067   -5.3391243825
     H     3.3096689634   -9.5372687705   -3.9694773365
     H     3.8217896105   -8.1023407028   -2.0023053005
     H     1.1102463766    2.6736022346    0.2367032927
     H     2.3700550822    4.5142745575    1.3580070106
     H     4.8188841743    4.3492010602    1.6260121063
     H     4.7937922208    0.5391015538   -0.3462671277
     H     7.1049639785    4.3034623607    0.9891790201
     H     8.2871832499    3.0575519967    1.4760978326
     H     6.8845410024    3.4425901912    2.5136770805
