6
-2.7718806189306491e+02 frame 18   xyz file generated by TeraChem
     O     1.4253636761   -0.1581102675    0.1214476635
     C     2.6944875746    0.3211203227    0.0395572180
    Na    -0.0710953445   -1.4408926257    0.1335270900
     H     2.7558175348    1.4222512776   -0.1414874362
     H     3.3056751007   -0.1264709695   -0.7823051460
     H     3.3080605175    0.1614551495    0.9600498132
