50
-1.7000152039773602e+03 frame 45   xyz file generated by TeraChem
     O     2.9273029511   -7.7827756900    2.7157932814
     C     3.9651968449   -7.1505785019    2.5413850578
     C     4.1677699810   -5.9225904505    1.7598481706
     C     3.2265554112   -5.2119036734    1.0407114989
     C     1.8649216021   -5.5100832940    0.8926687357
     C     1.0302204168   -4.7066075244    0.1338968833
     C    -0.3353495080   -4.9499992717   -0.0573260242
     C    -1.2049659720   -4.1698924689   -0.8184824471
     C    -0.8300083629   -2.9899053866   -1.5407559369
     C    -1.7464938086   -2.2821358520   -2.2496190273
     O    -3.0409447468   -2.6835967588   -2.3214330427
     C    -3.4560350828   -3.8006961354   -1.6709784581
     C    -2.5868318667   -4.5303279653   -0.9253138443
     C    -4.8854472240   -4.0644920049   -1.8581751403
     C    -5.7308083636   -3.0573702178   -2.3469843125
     C    -7.0900162104   -3.3005055435   -2.5103868690
     C    -7.6238163862   -4.5477474061   -2.1928981431
     C    -6.7878205649   -5.5564367003   -1.7140983322
     C    -5.4289327198   -5.3207004803   -1.5498198434
     C    -1.4917199321   -1.0642640645   -3.0249791262
     C    -2.3668704216   -0.6871290896   -4.0542249790
     C    -2.1170312547    0.4582787287   -4.8016100291
     C    -0.9982817692    1.2436132193   -4.5298933881
     C    -0.1292637852    0.8796578436   -3.5015339338
     C    -0.3729416848   -0.2637374088   -2.7510498014
     C     5.5767873234   -5.5031203800    1.8273308225
     O     6.0909470306   -4.5267865053    1.2923008279
     C     6.2558511168   -6.5139786400    2.6804067198
     C     5.3030925200   -7.4876393018    3.1003328092
     C     5.8362875637   -8.4617596420    3.8901935068
     S     7.5264093695   -8.1788882283    4.1190987516
     C     7.5134328155   -6.7473101148    3.1502975373
     H     3.6023163086   -4.3200001399    0.5338325734
     H     1.4639301429   -6.3927935257    1.3835723090
     H     1.4813694877   -3.8326561174   -0.3370521624
     H    -0.7614133120   -5.8266403363    0.4281104484
     H     0.1976690262   -2.6492503988   -1.5474487148
     H    -2.9485548094   -5.3998082083   -0.3885591654
     H    -5.3219243361   -2.0815016440   -2.5871089462
     H    -7.7345732036   -2.5099836481   -2.8844573981
     H    -8.6859990159   -4.7361395059   -2.3222677318
     H    -7.1943671698   -6.5350590687   -1.4750668011
     H    -4.7881367998   -6.1242988304   -1.1998388006
     H    -3.2342127957   -1.3012501041   -4.2736920756
     H    -2.7980083472    0.7362286115   -5.6011453533
     H    -0.8060020377    2.1393262250   -5.1140242189
     H     0.7373768654    1.4945379500   -3.2758576802
     H     0.2960314605   -0.5209983627   -1.9353379888
     H     5.3592213827   -9.3185588643    4.3495855897
     H     8.4253756074   -6.1837233329    2.9973947974
