13
-4.8955592782606061e+02 frame 10   xyz file generated by TeraChem
     O    -2.3823260633   -1.2546279710    0.0206013694
     C    -1.2913297797   -0.7230598861   -0.0165278950
     C    -0.0043259277   -1.5033565545   -0.0740917023
     C     1.2873950863   -0.7305476303   -0.0214194488
     O     2.3751027849   -1.2690615895    0.0112871265
     N     1.1694246886    0.6423284612   -0.0271493221
     C     0.0043378677    1.3861116600   -0.0277415945
     O     0.0077554564    2.5996139414   -0.0275604393
     N    -1.1650075326    0.6490594704   -0.0233597273
     H    -0.0077857091   -2.0870084406   -1.0032660124
     H    -0.0049571717   -2.2357803394    0.7400567857
     H     2.0293054913    1.1805437353   -0.0105335804
     H    -2.0215914164    1.1923946878   -0.0033859285
