50
-1.3393421361471464e+03 frame 43   xyz file generated by TeraChem
     O    -5.1814021186    0.3684549359    0.8228815317
     C    -4.3050577193   -0.4122607543    1.1473030569
     O    -4.6258086096   -1.3697658828    2.0645845351
     C    -3.5698190496   -2.0498589858    2.7411018871
     C    -2.9287523034   -1.1357167105    3.7716183552
     C    -4.1862466721   -3.2872274123    3.3496180904
     O    -2.5889479029   -2.5077141559    1.8113080013
     C    -2.1226949760   -1.6314636990    0.8819559744
     O    -1.0783033041   -1.9013495656    0.3176933584
     C    -2.9579792739   -0.4680789298    0.6050885375
     C    -2.4385437682    0.4834544645   -0.2670869802
     C    -3.0316134674    1.6470714585   -0.7530835907
     C    -2.3948776802    2.5359023689   -1.6284658454
     C    -1.0505879751    2.4071153934   -2.1006030613
     C    -0.5255007031    3.3048175086   -2.9753475048
     O    -1.2494563334    4.3652437168   -3.4051799065
     C    -2.5210620835    4.5565890264   -2.9792992442
     C    -3.1026981977    3.6762309559   -2.1216363453
     C    -3.1372464919    5.7505559700   -3.5636028312
     C    -4.2837514197    6.3199483929   -2.9896197832
     C    -4.8663826095    7.4446370926   -3.5598214442
     C    -4.3137207309    8.0189777992   -4.7044332355
     C    -3.1707066079    7.4630364279   -5.2758471382
     C    -2.5824018739    6.3376594373   -4.7106672862
     C     0.8291502745    3.2801127079   -3.5357586128
     C     1.5816954592    2.0965318016   -3.5279434610
     C     2.8699150158    2.0820761772   -4.0471742518
     C     3.4230709963    3.2432823340   -4.5862151533
     C     2.6779096376    4.4206334666   -4.6060267475
     C     1.3882311393    4.4424600019   -4.0869118365
     H    -3.6814153345   -0.8173502744    4.4978548245
     H    -2.4980735649   -0.2485979520    3.2972512642
     H    -2.1349414405   -1.6759711273    4.2945296964
     H    -4.9570329047   -2.9984782477    4.0686239779
     H    -3.4167406142   -3.8683149020    3.8642261466
     H    -4.6361210459   -3.8997636386    2.5637231981
     H    -1.4270054798    0.2486702915   -0.5944725846
     H    -4.0499786849    1.8764440954   -0.4593022855
     H    -0.4180694674    1.5985693421   -1.7581764947
     H    -4.1328619522    3.8292253590   -1.8209765222
     H    -4.7098108477    5.8987962656   -2.0842607812
     H    -5.7508883549    7.8797149832   -3.1034528489
     H    -4.7711256933    8.8996593057   -5.1466836403
     H    -2.7356378542    7.9050106123   -6.1677289523
     H    -1.6975487024    5.9021546594   -5.1628160446
     H     1.1548052729    1.1778208384   -3.1370337999
     H     3.4402393923    1.1576356254   -4.0393529601
     H     4.4302027950    3.2282118467   -4.9936240466
     H     3.1027988052    5.3286218026   -5.0246893604
     H     0.8153581578    5.3641040570   -4.0961139440
