54
-1.4166544443287389e+03 frame 47   xyz file generated by TeraChem
     O    -7.4226693386   -0.9242163866    0.5997454441
     C    -6.5203429741   -1.6843359506    0.8989254564
     O    -6.8064528000   -2.6784661057    1.7866556931
     C    -5.7246330139   -3.3444218607    2.4353255581
     C    -5.0943173551   -2.4387124906    3.4800061657
     C    -6.3019538134   -4.6106280961    3.0225474669
     O    -4.7462820086   -3.7540918894    1.4810723269
     C    -4.3098351137   -2.8373993993    0.5746506106
     O    -3.2689844121   -3.0664485012   -0.0129927728
     C    -5.1719664419   -1.6805667338    0.3526040309
     C    -4.6811020433   -0.6622982594   -0.4552723983
     C    -5.2985110870    0.5328147366   -0.8407070566
     C    -4.6275902186    1.4566401867   -1.6278660096
     C    -5.1769051661    2.6764911398   -2.0360940268
     C    -4.5443092522    3.6434047736   -2.8177443453
     C    -3.2169793817    3.5369083523   -3.3471602344
     C    -2.6734435514    4.5434743183   -4.0799535867
     O    -3.3801451429    5.6684586529   -4.3573058210
     C    -4.6509594792    5.8177296494   -3.9065046959
     C    -5.2325999308    4.8550405156   -3.1456662198
     C    -5.2476224000    7.0932055767   -4.3126678521
     C    -6.6358780356    7.2865435662   -4.2498292594
     C    -7.1924627693    8.5014604741   -4.6284241248
     C    -6.3762560367    9.5388354982   -5.0792321776
     C    -4.9972813005    9.3521161693   -5.1514445709
     C    -4.4334770362    8.1387112705   -4.7734221192
     C    -1.3319550748    4.5627437067   -4.6706836706
     C    -1.0417876343    5.4274468232   -5.7364778509
     C     0.2257888340    5.4346949425   -6.3075142248
     C     1.2194882022    4.5862971579   -5.8227179837
     C     0.9403544749    3.7304373469   -4.7575018166
     C    -0.3236470402    3.7189813970   -4.1816576650
     H    -5.8479932596   -2.1495254161    4.2173281547
     H    -4.6833563913   -1.5341386369    3.0217014496
     H    -4.2871394299   -2.9743465606    3.9869244512
     H    -7.0751300384   -4.3570720688    3.7522123672
     H    -5.5140093271   -5.1813463574    3.5205525364
     H    -6.7418805190   -5.2191847263    2.2279396802
     H    -3.6651203861   -0.8260851356   -0.8157568936
     H    -6.3128908665    0.7412093758   -0.5157192053
     H    -3.6126738330    1.2028669870   -1.9357079412
     H    -6.1918865501    2.9009001253   -1.7119070528
     H    -2.6285279953    2.6430805914   -3.1831460903
     H    -6.2364839498    5.0116929119   -2.7680487052
     H    -7.2873538827    6.4807917849   -3.9254172819
     H    -8.2693514452    8.6357961758   -4.5796982557
     H    -6.8148905181   10.4872278520   -5.3769843061
     H    -4.3552265917   10.1556203604   -5.5014174514
     H    -3.3582803604    8.0013019425   -4.8246052756
     H    -1.8153667754    6.0825859047   -6.1236761270
     H     0.4367178914    6.1039808936   -7.1369184735
     H     2.2097420381    4.5946190265   -6.2697193294
     H     1.7137364789    3.0755163084   -4.3662277058
     H    -0.5183616593    3.0679187809   -3.3346572890
