77
-3.0274881999994795e+03 frame 126   xyz file generated by TeraChem
     O     2.4224964863   -0.2324047330    0.0001416363
     S     3.8706985156   -0.4418398801    0.1345354548
     O     4.6534434380    0.4182798214    1.0314896942
     C     4.1304474038   -2.1310199501    0.6425807994
     C     5.3330386751   -2.4725805071    1.2539599219
     C     5.5078271325   -3.8041966201    1.6284352528
     C     4.5185494859   -4.7510540945    1.4076428460
     C     3.3028682497   -4.3871186434    0.7962072912
     C     3.1171858044   -3.0518898882    0.4011863411
     N     2.3036261575   -5.3143901485    0.6011276953
     N     2.4616075348   -6.5992965851    1.0150954857
     C     1.3431400574   -7.2300842149    0.8710189429
     C     0.2321568261   -6.3538803593    0.3501917191
     C     0.9844277490   -5.0469438661    0.0133236011
     C     1.0446968366   -4.7719735573   -1.4759365310
     C     0.0910410537   -3.9356713488   -2.0605117886
     C     0.0815084661   -3.7313315720   -3.4389493971
     C     1.0330093703   -4.3555685716   -4.2446283483
     C     1.9933846881   -5.1830605914   -3.6642411430
     C     1.9973168923   -5.3926222249   -2.2873771489
     C     1.2070213430   -8.6263053747    1.2130670118
     C     2.1611007973   -9.4992673276    1.6915772306
     C     1.6535656783  -10.8014149350    1.9235205026
     C     0.3224563610  -10.9149000973    1.6219589697
     S    -0.3259334669   -9.4297227585    1.0494628923
     C     4.5964065744   -0.3220717456   -1.4891462666
     C     5.9694684398   -0.1208763566   -1.5985749978
     C     6.5047874568   -0.0343955144   -2.8826757387
     C     5.7001254542   -0.1397423963   -4.0081493867
     C     4.3114939183   -0.3350864851   -3.8798172561
     C     3.7583547712   -0.4324845581   -2.5916817066
     N     3.5038538632   -0.4395477540   -4.9896735338
     N     4.0279697142   -0.3549038365   -6.2402249362
     C     3.0884241667   -0.5552604328   -7.1052707430
     C     1.7551298526   -0.8575468436   -6.4690833847
     C     2.0392562601   -0.5732061014   -4.9782737227
     C     1.3443238469    0.6706653549   -4.4616599128
     C     0.1884460774    0.5501813273   -3.6877600237
     C    -0.4927002378    1.6856264085   -3.2530423602
     C    -0.0203525052    2.9530111730   -3.5865234595
     C     1.1376861738    3.0794381162   -4.3532532586
     C     1.8166809372    1.9447522196   -4.7884118978
     C     3.3424605347   -0.5181106382   -8.5259075622
     C     4.5230096639   -0.2587262879   -9.1895721305
     C     4.3903240863   -0.3163614793  -10.5988188691
     C     3.1163928080   -0.6174949913  -11.0012486952
     S     2.0630131644   -0.8327054756   -9.6599889627
     H     6.0955153669   -1.7253920223    1.4449809223
     H     6.4320509845   -4.1091669731    2.1115171099
     H     4.6646720260   -5.7802880977    1.7136048549
     H     2.1995430028   -2.7255508874   -0.0743634518
     H    -0.5341579569   -6.2030086922    1.1199906916
     H    -0.2601466995   -6.7800412100   -0.5293785261
     H     0.5243221500   -4.1924095705    0.5218070080
     H    -0.6491311947   -3.4424983652   -1.4334934957
     H    -0.6694713463   -3.0825659521   -3.8829090847
     H     1.0272714743   -4.1958810372   -5.3198835920
     H     2.7411815879   -5.6693231091   -4.2852386145
     H     2.7487385601   -6.0374453070   -1.8377996908
     H     3.1897267341   -9.2024211934    1.8645520727
     H     2.2506475984  -11.6259563285    2.2984032373
     H    -0.3154326658  -11.7859087671    1.7014899999
     H     6.5936381750   -0.0223268777   -0.7170666065
     H     7.5721989651    0.1236392844   -3.0099129483
     H     6.1316965128   -0.0700606811   -4.9997547715
     H     2.6942308961   -0.5698248082   -2.4392463789
     H     1.4787815008   -1.9053430055   -6.6407344419
     H     0.9471178350   -0.2315474081   -6.8597861387
     H     1.7559253775   -1.4318207753   -4.3603991034
     H    -0.1771126571   -0.4393732125   -3.4199386303
     H    -1.3888103747    1.5786119805   -2.6473432267
     H    -0.5478553372    3.8396685875   -3.2450082253
     H     1.5155508793    4.0654740509   -4.6108726384
     H     2.7245567662    2.0494385301   -5.3783905186
     H     5.4475202001   -0.0337343687   -8.6692280132
     H     5.2066304147   -0.1405366376  -11.2914351325
     H     2.7342011994   -0.7239755021  -12.0084557035
