66
-2.5887507501229056e+03 frame 56   xyz file generated by TeraChem
     O    -2.5958912485    0.5006588456    1.3363028526
     C    -1.6217486312   -0.0064077169    0.7904497239
     N    -1.4229822934   -1.3933068984    0.6938500762
     C    -0.2621198187   -1.7375721812    0.0328337989
     C     0.3495432023   -0.5485467912   -0.3319560066
     C    -0.4553967572    0.5412242369    0.1189636096
     C     0.1634224666    1.7303696138   -0.2332056692
     N     1.3261947557    1.3858463013   -0.8911222067
     C     1.5194061539   -0.0010699500   -0.9971055631
     O     2.4911762393   -0.5082662395   -1.5472245762
     C    -0.2310490829    3.1074141520   -0.0055609138
     C    -1.4437333826    3.3814692000    0.6521825496
     C    -1.8379458494    4.6883253318    0.8854329352
     C    -1.0455619718    5.7709590987    0.4737592732
     C     0.1616791067    5.4937790744   -0.1847456311
     C     0.5643559799    4.1891084886   -0.4204024207
     C    -1.4648972574    7.1637030122    0.7322619213
     C    -2.1747218492    7.4908764630    1.8981621080
     C    -2.5671966116    8.7982012185    2.1515271493
     C    -2.2437211143    9.7936129670    1.2315703646
     C    -1.5458868854    9.4977709159    0.0633116173
     C    -1.1623124779    8.1852247576   -0.1806223455
     S    -2.7268908485   11.4742317097    1.5604980694
     O    -2.7055361490   12.2140317497    0.2913625758
     O    -3.9696839682   11.4467185765    2.3438608688
     C    -1.4289787600   12.1146750164    2.5987799023
     C     0.1410120107   -3.1143948627   -0.1794388771
     C    -0.6248002618   -4.1960849858    0.2876774522
     C    -0.2137975629   -5.5009060743    0.0669469541
     C     0.9749868292   -5.7781148127   -0.6243388085
     C     1.7382408317   -4.6951344002   -1.0871028566
     C     1.3337246242   -3.3883415499   -0.8725675592
     C     1.4110905500   -7.1691064527   -0.8630488293
     C     0.4713123112   -8.1886351010   -1.0816392345
     C     0.8776125008   -9.4952513187   -1.3171799564
     C     2.2399224674   -9.7875031787   -1.3389358072
     C     3.1947451523   -8.7985325864   -1.1168112800
     C     2.7755409123   -7.4962578888   -0.8780051061
     S     2.7732217437  -11.4502009824   -1.6805252106
     O     4.1567439829  -11.5916660924   -1.2076333634
     O     1.7516418339  -12.3765462948   -1.1734630556
     C     2.7800925435  -11.5508487333   -3.4592196159
     H    -2.0951114408   -2.0415824684    1.0792590936
     H     1.9953086373    2.0333501411   -1.2829884423
     H    -2.0760623333    2.5580868712    0.9761773711
     H    -2.7898054537    4.8722026126    1.3758084434
     H     0.8089514081    6.3094998803   -0.4935587283
     H     1.5140297515    4.0276367026   -0.9216676768
     H    -2.4063462064    6.7189014810    2.6259776920
     H    -3.1201644379    9.0425362141    3.0536303137
     H    -1.3213914719   10.2823078597   -0.6525576511
     H    -0.6431818937    7.9495763093   -1.1051155884
     H    -0.4867427409   12.0799579608    2.0480516893
     H    -1.3729025786   11.5150733811    3.5096540216
     H    -1.6970570427   13.1479049126    2.8362457389
     H    -1.5476574453   -4.0347793032    0.8369065646
     H    -0.8141358467   -6.3157145996    0.4610063479
     H     2.6510376718   -4.8785526841   -1.6469144313
     H     1.9370373692   -2.5652259116   -1.2485785522
     H    -0.5892697508   -7.9550997992   -1.0904849517
     H     0.1450191513  -10.2794986180   -1.4827928412
     H     4.2505545718   -9.0509366662   -1.1160604253
     H     3.5179519068   -6.7293385885   -0.6780117586
     H     3.4786091047  -10.8092413548   -3.8524968371
     H     1.7686225826  -11.3697556876   -3.8291311424
     H     3.1069518300  -12.5618356167   -3.7176260521
