48
-9.8130973027265213e+02 frame 41   xyz file generated by TeraChem
     O     0.9475349106   -1.5642946956    0.3310161041
     C     2.1423605908   -1.6770050538    0.5409849285
     C     2.8443078552   -2.8707442418    0.9153775663
     C     4.1920336191   -2.8778161343    1.1243055318
     C     4.8964424597   -4.1431543686    1.5074501654
     C     4.9312843574   -1.6554324090    0.9743041814
     C     4.2446259305   -0.4815918511    0.6188626843
     O     2.9004340052   -0.5356036402    0.3949582460
     C     4.8629356790    0.7618588895    0.4565891073
     C     6.2846564679    0.7938861439    0.5558904631
     C     7.0038651134   -0.3728146196    0.9851941639
     C     6.3179813911   -1.5497300457    1.1722893268
     C     8.5009524734   -0.2693253106    1.2369435028
     C     9.2087410410   -1.6237932650    1.1929858010
     C     8.7419612358    0.3714497576    2.6148070847
     C     9.0703362246    0.6153605188    0.1226748449
     C     8.4273934784    1.9850666210    0.1214849305
     N     6.9810187328    1.9337450867    0.2662070448
     C     6.3106290166    3.1391922039   -0.1731445524
     C     4.9424481589    3.2461876080    0.4513057158
     C     4.0547186451    2.0301546686    0.1560203535
     C     2.8230700659    2.1911191292    1.0661457231
     C     3.6023365757    2.0489479523   -1.3122903276
     H     2.2458284869   -3.7690674846    1.0215231834
     H     5.6659490717   -4.4000044390    0.7699583061
     H     4.1924834388   -4.9757105644    1.5779986980
     H     5.4029324380   -4.0326283730    2.4734356725
     H     6.8622809396   -2.4353807856    1.4806179020
     H     8.8963208985   -2.2776224730    2.0142069763
     H    10.2899629848   -1.4720737424    1.2901808796
     H     9.0202315524   -2.1426679298    0.2461998848
     H     8.3839943283   -0.2948203259    3.4074156289
     H     8.2162916955    1.3258086995    2.7201249262
     H     9.8132187235    0.5492130162    2.7732888887
     H     8.8990580488    0.1204630676   -0.8418706102
     H    10.1539015032    0.7330800191    0.2426280908
     H     8.6535122584    2.4986199074   -0.8229330579
     H     8.8451276273    2.6102346317    0.9243998678
     H     6.2516741056    3.1614940539   -1.2730949161
     H     6.9304209584    3.9922637827    0.1281604684
     H     4.4430434831    4.1524561602    0.0892259508
     H     5.0592348973    3.3503652968    1.5382254789
     H     3.0965911045    2.0602875587    2.1195967127
     H     2.0263353265    1.4877595139    0.8252824880
     H     2.4276532817    3.2072629204    0.9451991761
     H     4.4533989586    2.0091313239   -2.0009387895
     H     3.0384338156    2.9676666338   -1.5180757470
     H     2.9529449242    1.1956145030   -1.5297668776
