31
-1.1236060289697161e+03 frame 22   xyz file generated by TeraChem
     C     1.9378020580    0.8313637824    1.2904465296
     C     2.2091739203    0.2769179010    0.1032622180
     C     2.9770158531    0.8727145146   -0.9951910125
     C     3.5785763522    2.1398083377   -0.9183227222
     C     4.2928821015    2.6563401665   -1.9867297047
     C     4.4344919388    1.9251768050   -3.1758271774
     C     3.8383931788    0.6587353428   -3.2616118001
     C     3.1255398052    0.1479537242   -2.1886382922
     C     5.1824755330    2.4450839056   -4.3170140924
     N     5.3018254808    1.8076021944   -5.4555479635
     N     6.0374848235    2.4662029393   -6.3713298992
     C     6.4949391999    3.6193866283   -5.9516833211
     S     6.0170747215    3.9730964935   -4.3155960189
     C     7.3201027351    4.5069150385   -6.7716668358
     C     7.7587693532    5.7504411866   -6.2984443469
     C     8.5418886550    6.5709666883   -7.1030309467
     C     8.8964960524    6.1615993404   -8.3872123224
     C     8.4630050948    4.9242387035   -8.8645672832
     C     7.6809013906    4.1005455928   -8.0657649546
     H     1.3551072170    0.2924435312    2.0318963182
     H     2.2754881316    1.8263471996    1.5703939779
     H     1.8295894744   -0.7244520681   -0.0999890467
     H     3.4896070303    2.7318436415   -0.0123720035
     H     4.7440357019    3.6412097721   -1.8912962632
     H     3.9423441065    0.0827686984   -4.1752800640
     H     2.6697356517   -0.8360218996   -2.2707047755
     H     7.4895875652    6.0848324182   -5.2992541891
     H     8.8756859774    7.5328197478   -6.7242070160
     H     9.5085085161    6.8040682332   -9.0142659475
     H     8.7365533867    4.5992259582   -9.8645978352
     H     7.3410779734    3.1371538098   -8.4315524680
