8
-5.2627565911998352e+02 frame 16   xyz file generated by TeraChem
     O     0.9740346052    0.1898233093   -0.0759654154
     C     2.2779648599   -0.0238556963   -0.1262797468
     O     2.8324564896   -0.5566305837   -1.0495915438
     C     3.0942366383    0.4593649359    1.0923032842
     F     2.3057661642    1.0234536846    2.0225208717
     F     3.7278046179   -0.5704644660    1.6517001292
     F     3.9972183938    1.3574657734    0.7023007535
     H     0.7210266305    0.6304716122    0.7556074910
