52
-1.3745062800185174e+03 frame 52   xyz file generated by TeraChem
     O    -1.7956477132    2.2222046783   -0.5514374189
     C    -1.1918245483    1.0647884113   -0.2375754712
     C    -1.9035847562   -0.1368902625   -0.1211520568
     C    -1.2418390152   -1.3171421004    0.1643812533
     C     0.1409738116   -1.2871131482    0.3302847452
     C     0.8619433057   -0.1002985377    0.2209790026
     C     0.2074645185    1.0898256958   -0.0619355157
     C     0.9619578722    2.3760587619   -0.0972148434
     N     0.6428328586    3.2091564048    0.9021963021
     C     1.3005743437    4.3561076017    1.0247366250
     C     0.9302502437    5.2484300523    2.1763920977
     C     2.1863121772    5.8863025552    2.7644741868
     C     2.9130913881    6.6352968331    1.6806308747
     C     2.9646178470    6.0717600709    0.3871161339
     C     2.3562427873    4.7391606173    0.1698395997
     C     2.7592387776    3.8194226308   -0.8108131013
     C     1.9948252467    2.6450085840   -1.0093321649
     C     2.3319928512    1.7742234362   -2.1593258940
     C     1.3661201479    1.0547715212   -2.8750511339
     C     1.7272673906    0.2585828338   -3.9571140060
     C     3.0620135260    0.1771739352   -4.3485308609
     C     4.0239477875    0.9226114107   -3.6715405442
     C     3.6710957055    1.7283873598   -2.5905662740
     C     4.6584176216    2.6119267114   -1.8863485565
     C     4.0176936157    3.9749897267   -1.6279415070
     C     3.5215821683    6.8293832920   -0.6526764526
     C     4.0796277636    8.0812712428   -0.4117255632
     C     4.0790310009    8.6054836275    0.8779379419
     C     3.4827848447    7.8857032982    1.9109757012
     N     0.8454316955   -2.5130309819    0.6281492390
     O     0.1915036486   -3.5438447834    0.7408786850
     O     2.0635829363   -2.4673640381    0.7555281203
     H    -2.7487940379    2.0762718136   -0.6629908550
     H    -2.9815071430   -0.1345857407   -0.2638635418
     H    -1.7797694319   -2.2534405496    0.2551684239
     H     1.9366705507   -0.1118644313    0.3627365798
     H     0.3881596456    4.6569651484    2.9198014085
     H     0.2501426367    6.0399134628    1.8272224521
     H     2.8294962424    5.0992088062    3.1854546921
     H     1.9307600104    6.5642270174    3.5851430545
     H     0.3194636939    1.1332718398   -2.6002368041
     H     0.9622603734   -0.2899133252   -4.5001730075
     H     3.3493869877   -0.4457055604   -5.1915672405
     H     5.0630014509    0.8924584930   -3.9925610408
     H     5.5656294268    2.7286368825   -2.4877230654
     H     4.9608474478    2.1672953749   -0.9268360592
     H     3.7936500249    4.4515457700   -2.5936273282
     H     4.7213698082    4.6296777669   -1.1065179720
     H     3.4926568493    6.4543358109   -1.6699469930
     H     4.5037415966    8.6489150861   -1.2356192104
     H     4.5156968825    9.5810671362    1.0748291153
     H     3.4413533465    8.3069946827    2.9131560140
