46
-1.6226996498641479e+03 frame 56   xyz file generated by TeraChem
     O     0.8145262500   -0.0492324016   -0.4560754105
     C     2.0296773000    0.0068561165   -0.2844640304
     C     2.9728715270   -1.0975142538   -0.0845236097
     C     2.6942315092   -2.4533227978   -0.0505681688
     C     1.4413705889   -3.0451397819   -0.1976688855
     C     1.2252679521   -4.4209983759   -0.1523748060
     O    -0.0796834452   -4.7736892728   -0.3023414381
     C    -0.4993065795   -6.0579156394   -0.2774807340
     C     0.3951390192   -7.0686574792   -0.1045047640
     C     1.7845597246   -6.7725474466    0.0375686209
     C     2.1743740781   -5.4525637284    0.0100564524
     C     2.7604977383   -7.8628997255    0.2079725999
     C     3.9205877007   -7.6752376075    0.9746683464
     C     4.8403740170   -8.7062072295    1.1267365669
     C     4.6210390876   -9.9383515952    0.5118888803
     C     3.4726601398  -10.1356257768   -0.2528173458
     C     2.5459800339   -9.1092476933   -0.3989939838
     C    -1.9505503410   -6.1851514677   -0.4286900035
     C    -2.7792888325   -5.0662441452   -0.2582942372
     C    -4.1575193813   -5.1886447734   -0.3911418874
     C    -4.7263794337   -6.4231734696   -0.6983234688
     C    -3.9076865873   -7.5383577037   -0.8764982633
     C    -2.5298989582   -7.4231881852   -0.7459970530
     C     4.3371430716   -0.5814691109    0.0862805078
     O     5.3624306065   -1.2284819280    0.2763390241
     C     4.2213037131    0.8981099010   -0.0177134717
     C     2.8560788219    1.2453938739   -0.2369667431
     C     2.6494171048    2.5875130206   -0.3466900519
     S     4.1486530846    3.4333329434   -0.1791496816
     C     5.0528164646    1.9757451837    0.0394602352
     H     3.5660726389   -3.0889629096    0.1110911362
     H     0.5740681027   -2.4117359839   -0.3519521169
     H     0.0418227493   -8.0889262388   -0.0301063476
     H     3.2201932119   -5.1807146660    0.0844993862
     H     4.0892939104   -6.7276414034    1.4789474342
     H     5.7277290532   -8.5493059675    1.7337288052
     H     5.3416556232  -10.7428645815    0.6306114389
     H     3.2981190898  -11.0909578507   -0.7399671504
     H     1.6645234684   -9.2688951093   -1.0139210399
     H    -2.3411046826   -4.1040798778   -0.0148312716
     H    -4.7891181870   -4.3157571852   -0.2521377805
     H    -5.8037891464   -6.5161208026   -0.8033921591
     H    -4.3434267245   -8.5013731292   -1.1270365416
     H    -1.9051047757   -8.2953910050   -0.9124725898
     H     1.7296759126    3.1345466220   -0.5123893358
     H     6.1239980597    2.0163084996    0.1930458542
