62
-2.2882524825938617e+03 frame 42   xyz file generated by TeraChem
     C     3.1963193229    0.8198692949   -0.2775222538
     S     2.2572638780   -0.1415609302    0.9282776105
     C     2.9802748013   -1.7513113083    0.8366678075
     C     2.4530654839   -2.7320604272    1.6896878438
     C     2.9598105819   -4.0215706543    1.6773807051
     C     4.0122771360   -4.3831487897    0.8204464752
     C     4.5319343253   -3.3932388909   -0.0232911675
     C     4.0278482627   -2.0969646019   -0.0225622348
     C     4.5482705814   -5.7568634236    0.8080500919
     C     3.7174172682   -6.8600501484    1.0623379914
     C     4.2147302827   -8.1526805542    1.0496321637
     C     5.5727447217   -8.3978202476    0.7807552724
     C     6.4101709359   -7.2964486315    0.5242381103
     C     5.9042084270   -6.0077801390    0.5397006719
     C     6.1238243736   -9.7378530955    0.7608084845
     N     5.3602476682  -10.8626394530    0.9999179754
     C     6.0892165767  -12.0611453695    0.9330466314
     O     5.5863056289  -13.1659830639    1.1122571941
     C     7.4340880426  -11.6118293044    0.6229066445
     C     7.4143525884  -10.1866653060    0.5236852671
     C     8.7609532067   -9.7367509588    0.2219104461
     O     9.2639268208   -8.6320001569    0.0421900367
     N     9.4915469862  -10.9346097263    0.1634797946
     C     8.7276803511  -12.0595197103    0.4009627327
     C     9.2844106350  -13.3973598622    0.4063677932
     C     8.4442231438  -14.5010300631    0.6433318003
     C     8.9593636025  -15.7859642866    0.6709563039
     C    10.3274514908  -16.0303704218    0.4655578325
     C    11.1593243100  -14.9257590945    0.2210945731
     C    10.6531049225  -13.6370001383    0.1921257151
     C    10.8766973436  -17.3982445430    0.5133806101
     C    10.1245437732  -18.5011686662    0.0898197110
     C    10.6373854275  -19.7934696825    0.1364738093
     C    11.9297573334  -20.0195312285    0.6195716284
     C    12.6934192955  -18.9238385333    1.0479541267
     C    12.1745232994  -17.6402893556    0.9923793617
     S    12.6863499837  -21.6122824160    0.7327069808
     C    11.4131557619  -22.7376976397    0.1226539841
     H     2.7701105059    1.8257672616   -0.2482993899
     H     3.0826461704    0.4161948294   -1.2869760755
     H     4.2543913482    0.8742740673   -0.0084076133
     H     1.6455931514   -2.4788449314    2.3725141082
     H     2.5473617632   -4.7543294781    2.3656756750
     H     5.3305818418   -3.6417529908   -0.7171049508
     H     4.4545145585   -1.3669859211   -0.7023048297
     H     2.6583272636   -6.7056243733    1.2472454076
     H     3.5248506641   -8.9693927502    1.2412796261
     H     7.4660057509   -7.4630273346    0.3226480765
     H     6.5795856640   -5.1750593041    0.3639766738
     H     4.3718198223  -10.8704400057    1.2070701193
     H    10.4814662048  -10.9265635626   -0.0362360006
     H     7.3833799974  -14.3372515861    0.8194119062
     H     8.2921178942  -16.6164746018    0.8844029686
     H    12.2175275147  -15.0797908420    0.0304571655
     H    11.3413065652  -12.8201689115   -0.0050570528
     H     9.1254053790  -18.3510325089   -0.3104944110
     H    10.0219391818  -20.6155728232   -0.2134717544
     H    13.6969620402  -19.0807279855    1.4360322667
     H    12.7798299894  -16.8140609412    1.3553415124
     H    11.8489525354  -23.7378339502    0.1873583626
     H    11.1596493636  -22.5281038821   -0.9197285035
     H    10.5154616115  -22.7012678171    0.7454810898
