170
-3.6988098862052084e+03 frame 72   xyz file generated by TeraChem
     C     1.0478877757   -0.5168311434   -1.0510726198
     C     2.5274542175   -0.2498257327   -0.7304320596
     C     2.8785958201    1.1962629402   -1.0875717086
     C     2.1634016508    2.2481684358   -0.5003341881
     C     2.4464244476    3.5885839921   -0.7810037461
     C     1.7029784074    4.6679177932   -0.1982411651
     C     1.9957259191    5.9651017568   -0.4809075261
     C     3.0719905453    6.3214828749   -1.3655724721
     C     3.8116679295    5.2648827044   -1.9782126028
     C     3.4968803756    3.9073869018   -1.6842172306
     C     4.2272539296    2.8498801198   -2.2903653999
     C     3.9016167994    1.5211432923   -1.9805494198
     C     5.2820985939    3.1765758078   -3.2052995674
     C     5.5870378298    4.4704918826   -3.4907728811
     C     4.8662967609    5.5543149968   -2.8892963778
     C     5.1661579315    6.8933466636   -3.1695322494
     C     4.4494322920    7.9173673955   -2.5694275560
     C     3.4057391739    7.6611417192   -1.6696464820
     C     2.7110463176    8.8136656841   -1.0384539999
     C     2.7891386601    8.9845196499    0.3437629812
     C     2.2224404813   10.0761003645    1.0034164878
     C     1.5611897860   11.0695356936    0.2458279663
     C     1.4415390352   10.9088731530   -1.1673447890
     C     2.0071431927    9.7668284998   -1.8096629904
     C     1.8224065318    9.6166605746   -3.2219326819
     C     1.1490226921   10.5412779328   -3.9539368366
     C     0.5901134083   11.7121800012   -3.3483819063
     C     0.7513637473   11.8951049001   -1.9425695012
     C     0.2194223731   13.0573801989   -1.3081103308
     C     0.3793482688   13.1957495416    0.1079581725
     C     1.0180071050   12.2512791652    0.8461808717
     C    -0.4573579280   14.0234254789   -2.0842352159
     C    -0.6018063580   13.8167170796   -3.4561312642
     C    -0.1032343182   12.6850873029   -4.1006265299
     C    -0.3511261686   12.5144798544   -5.5577445116
     C    -1.2674260048   11.5435226778   -5.9805972219
     C    -1.5756444168   11.3682205441   -7.3222274812
     C    -0.9671890581   12.1613188375   -8.3034376395
     C    -0.0225642339   13.1467624497   -7.8994161780
     C     0.2876447263   13.3280251414   -6.5185617515
     C     1.2651487985   14.3224227230   -6.1683308323
     C     1.8747851366   15.0853603926   -7.1139322691
     C     1.5741215567   14.9302419596   -8.5080338339
     C     0.6176407543   13.9484805059   -8.8863467431
     C     0.3165598951   13.7748240969  -10.2638888247
     C    -0.6477753023   12.7804035165  -10.6369917084
     C    -1.2602015786   12.0092801411   -9.6990923889
     C     0.9690497453   14.5701732800  -11.2178595776
     C     1.9132049012   15.5342642777  -10.8585060160
     C     2.1961001492   15.6988453898   -9.4962515678
     C     2.6411698914   16.4012194181  -11.8891980197
     C     2.2299146473   16.0697043469  -13.3257700382
     C     2.3244122451   17.8814746298  -11.6208621624
     C     4.1571608013   16.1751295032  -11.7612228245
     C    -1.0259835925   15.2573294995   -1.4767910850
     C    -0.1654882328   16.2595771886   -1.0129110156
     C    -0.6505088548   17.4418445486   -0.4707669899
     C    -2.0292029529   17.6665294407   -0.3651613999
     C    -2.9245616223   16.6578313448   -0.8206036172
     C    -2.4226607039   15.4459124704   -1.3809464279
     C    -3.3713858943   14.4509400572   -1.8025143662
     C    -4.7111847307   14.6515829516   -1.6920536475
     C    -5.2424845486   15.8652614732   -1.1426638429
     C    -4.3289050498   16.8635285592   -0.7059185279
     C    -4.8382002368   18.0659723604   -0.1468381897
     C    -3.9096064371   19.0665965816    0.2943603727
     C    -2.5673513374   18.8745364419    0.1901419458
     C    -6.2257828052   18.2411372377   -0.0355791214
     C    -7.1322918200   17.2663337836   -0.4578203919
     C    -6.6166021026   16.0875797821   -1.0121787972
     C    -8.6479904196   17.4407971076   -0.3336675597
     C    -9.0288847025   18.7640594914    0.3360061551
     C    -9.2790221089   17.4067554959   -1.7349004240
     C    -9.2249639329   16.2927221730    0.5105914994
     C     2.2942317631   10.1359756824    2.4868497803
     C     1.1031773202   10.0835233057    3.2236648146
     C     1.1020065703   10.0662475982    4.6103428835
     C     2.3061871936   10.0964516598    5.3252703929
     C     3.5304858073   10.1584318074    4.6019851897
     C     3.5282532267   10.1859295878    3.1748971945
     C     4.7940291399   10.2885959766    2.5000908530
     C     5.9676684342   10.3213769482    3.1854329373
     C     5.9988446443   10.2626511045    4.6179592955
     C     4.7624289512   10.1914887271    5.3157930211
     C     4.7749019833   10.1529270350    6.7361024348
     C     3.5234414335   10.0895413943    7.4339350202
     C     2.3434481300   10.0645105710    6.7581975182
     C     6.0022076478   10.1767992524    7.4160180831
     C     7.2225487422   10.2389957975    6.7404530650
     C     7.1954411750   10.2837920043    5.3405270078
     C     8.5691551238   10.2579363467    7.4671857684
     C     8.4131756688   10.2093889592    8.9895064946
     C     9.3971510958    9.0383792853    7.0298125397
     C     9.3283309567   11.5436824558    7.1015034024
     C     2.7681353697   -0.4694537368    0.7727811911
     C     3.3749650168   -1.2626446364   -1.5045756749
     H     0.3829244158    0.1461767963   -0.4879276573
     H     0.7919636221   -1.5503152909   -0.7891650026
     H     0.8470522754   -0.3743066045   -2.1191672802
     H     1.3565799673    2.0336550586    0.1969711958
     H     0.8839004263    4.4263387083    0.4754026657
     H     1.4043282162    6.7590607593   -0.0356381186
     H     4.4785575351    0.7366065640   -2.4607476284
     H     5.8363130320    2.3628507457   -3.6675019612
     H     6.3887412857    4.7101187319   -4.1854265598
     H     5.9741876946    7.1258016228   -3.8590216752
     H     4.7081932156    8.9500883397   -2.7887099720
     H     3.3147953885    8.2360988658    0.9313440449
     H     2.2296661623    8.7373781563   -3.7100478426
     H     1.0261075318   10.3983173109   -5.0228388754
     H    -0.0217856484   14.0798596991    0.5931657797
     H     1.1275655544   12.3901416492    1.9169002632
     H    -1.1335538275   14.5616616785   -4.0432110050
     H    -1.7541057788   10.9231349842   -5.2322824647
     H    -2.2989524160   10.6133590770   -7.6211931873
     H     1.5183813277   14.4543414804   -5.1206753558
     H     2.6142932941   15.8287482827   -6.8247236169
     H    -0.8777577557   12.6530513954  -11.6923468589
     H    -1.9874177463   11.2555720938   -9.9923166326
     H     0.7191580022   14.4117741424  -12.2626804987
     H     2.9247286676   16.4412125552   -9.1785198831
     H     1.1611351786   16.2433406152  -13.4967513921
     H     2.4554955001   15.0278654852  -13.5804721646
     H     2.7862070648   16.7112542237  -14.0182042598
     H     1.2493720545   18.0739443829  -11.7141062142
     H     2.8499765020   18.5146145865  -12.3457770999
     H     2.6403700862   18.1852974490  -10.6172993210
     H     4.4118285207   15.1257409881  -11.9492025029
     H     4.5252317504   16.4428047133  -10.7653559666
     H     4.6909309947   16.7923953269  -12.4938932810
     H     0.9077568172   16.1058173058   -1.0919405599
     H     0.0411983734   18.2068571279   -0.1260980629
     H    -2.9970079962   13.5183452195   -2.2131435415
     H    -5.4085810241   13.8819697957   -2.0151767015
     H    -4.3045089021   19.9865808457    0.7193252641
     H    -1.8717544059   19.6381900415    0.5304435864
     H    -6.5827024666   19.1704807629    0.3982696525
     H    -7.2936189575   15.3067660105   -1.3512517684
     H    -8.6852856608   19.6290093358   -0.2429751156
     H    -8.6150661464   18.8396884646    1.3480974676
     H   -10.1197208788   18.8288486582    0.4155906623
     H    -8.8969095713   18.2251546653   -2.3560497955
     H   -10.3676251701   17.5156697589   -1.6584360389
     H    -9.0702709162   16.4623614423   -2.2489622341
     H    -8.7888540815   16.2885446029    1.5162008444
     H    -9.0346528877   15.3161270320    0.0532949259
     H   -10.3107547912   16.4107573380    0.6090748611
     H     0.1582884871   10.0353811068    2.6884713032
     H     0.1610329879   10.0163508275    5.1529606608
     H     4.8018307060   10.3472937980    1.4162853159
     H     6.9117715840   10.3998250609    2.6512223454
     H     3.5384394789   10.0621282132    8.5210860339
     H     1.3990539905   10.0179324312    7.2953652814
     H     5.9780573321   10.1440557145    8.5010736543
     H     8.1271138808   10.3375181623    4.7818838131
     H     7.9049428692    9.2956670797    9.3188165353
     H     7.8544511298   11.0720500338    9.3706580061
     H     9.4056033251   10.2236912300    9.4532682000
     H     8.8807269349    8.1045375872    7.2805478398
     H    10.3668487318    9.0405376139    7.5420987389
     H     9.5870349898    9.0424777966    5.9511465673
     H     8.7615271210   12.4320248542    7.4032412035
     H     9.5183981554   11.6100195089    6.0250281054
     H    10.2966074276   11.5651156404    7.6158625750
     H     2.1587289746    0.2058491450    1.3830229657
     H     3.8210462363   -0.3020498610    1.0271612984
     H     2.5085219383   -1.4992676354    1.0457511934
     H     3.2322357018   -1.1685816158   -2.5873669067
     H     3.0806200675   -2.2777246630   -1.2157141454
     H     4.4433721312   -1.1515348609   -1.2868208532
