76
-2.1086726273331260e+03 frame 78   xyz file generated by TeraChem
     C     0.6817457523    0.4459040562    0.3608578187
     O     1.6547119643    0.4011455131    1.4041997698
     C     2.4032691211    1.4880549577    1.5990070337
     C     3.3421087592    1.4425410578    2.6470218393
     C     4.1049589139    2.5621163837    2.8335211873
     C     3.8916704909    3.6600680501    1.9666247481
     N     2.9767206068    3.6310392347    0.9913808072
     N     2.2365709395    2.5444075345    0.8133495771
     C     4.6584001121    4.8517693783    2.1049831037
     C     5.3354759341    5.8514007320    2.2500405290
     C     6.1288459733    7.0175053555    2.4197807657
     C     6.1333523596    8.0352146198    1.4493897946
     C     6.9182574145    9.1646786143    1.6120694118
     C     7.7104255688    9.3217428794    2.7589077603
     C     7.7031531761    8.3135051270    3.7343562710
     C     6.9315180623    7.1767346875    3.5633877153
     N     8.5020946256   10.4749952357    2.9310585403
     C     8.0149490344   11.7354053095    2.5280945048
     C     6.6703726704   12.0776897805    2.7329926561
     C     6.1920268916   13.3140574403    2.3330513876
     C     7.0459032555   14.2536004366    1.7283004989
     C     8.3947765707   13.9078584740    1.5325699109
     C     8.8698942289   12.6658612191    1.9199264509
     C     6.5531863346   15.5226005199    1.3222783011
     C     6.1319110053   16.6081494115    0.9718602268
     C     5.5987769842   17.8655650021    0.5697995253
     C     4.2107634861   18.1242819481    0.6643297549
     C     3.7595016951   19.3498335934    0.2583643811
     C     4.7293779118   20.2512852227   -0.2205593180
     N     6.0229599582   19.9630225034   -0.2870057679
     N     6.4626945906   18.7744571306    0.1049798646
     O     4.3035216703   21.4498276752   -0.6225409475
     C     5.2832328657   22.3746436419   -1.0945200148
     C     9.7789516000   10.3716362276    3.5213612992
     C    10.6250213563    9.2994756309    3.2031576979
     C    11.8719857353    9.1890338318    3.7960005723
     C    12.3181459802   10.1560150527    4.7142782614
     C    11.4697706143   11.2351421822    5.0203776292
     C    10.2173549140   11.3375113988    4.4385351845
     C    13.5956139366   10.0485995363    5.3263221183
     C    14.6856481452    9.9601257394    5.8580073868
     C    15.9504649728    9.8954958742    6.5082830155
     C    16.3801975730   10.9463860601    7.3531514214
     C    17.6019259533   10.8238634715    7.9557042462
     C    18.3259419103    9.6492621726    7.6771283277
     N    17.8821025621    8.6915009553    6.8729910311
     N    16.6977724909    8.8084499393    6.2870250722
     O    19.5161812660    9.5133917203    8.2642448128
     C    20.2508488852    8.3180515448    8.0018522591
     H     0.1896696455   -0.5264204245    0.3874897342
     H     1.1589859529    0.6050937483   -0.6099744896
     H    -0.0428230333    1.2447461460    0.5410722756
     H     3.4368195252    0.5536237569    3.2619635119
     H     4.8544363235    2.6212787377    3.6159723534
     H     5.5279127371    7.9236179969    0.5549607457
     H     6.9253730043    9.9320968992    0.8443176573
     H     8.3024522599    8.4284827822    4.6321694054
     H     6.9314740524    6.4056106822    4.3278549048
     H     6.0013070657   11.3699190626    3.2126391579
     H     5.1500809689   13.5690729245    2.5016290067
     H     9.0651457048   14.6177283223    1.0574432936
     H     9.9102132114   12.4080959787    1.7465270735
     H     3.5380167545   17.3641252442    1.0477835262
     H     2.7133860661   19.6355864769    0.2938451644
     H     4.7222009341   23.2662749606   -1.3747645328
     H     5.8136675204   21.9701488210   -1.9607085887
     H     6.0049355547   22.6106222599   -0.3076365315
     H    10.2999944004    8.5535682443    2.4843699009
     H    12.5197447010    8.3560438317    3.5399886408
     H    11.7959429076   11.9850553952    5.7347159821
     H     9.5661954329   12.1662921556    4.6987119978
     H    15.7490390253   11.8151807314    7.5091330982
     H    18.0120927548   11.5781550057    8.6190637566
     H    21.1632396763    8.4082968239    8.5915318964
     H    20.4918986470    8.2357914848    6.9384155240
     H    19.6824397721    7.4368142366    8.3112761270
