77
-1.5073665983121959e+03 frame 53   xyz file generated by TeraChem
     C     0.7758393186    1.9489630015    0.9070651442
     C     1.0550784916    0.5006791287    0.5060357561
     C     1.3560997461   -0.3944319454    1.7135570744
     C     2.6404792866   -0.0282080997    2.4515346611
     C     2.9930197416   -0.9078835654    3.6736559557
     C     4.3129693325   -0.3713907948    4.2748782239
     C     4.8420349374   -1.1156578497    5.4974139515
     C     6.1529447126   -0.5444333800    6.0524378420
     C     5.9695538725    0.8482099412    6.6541207052
     C     6.7513875369   -1.4934270004    7.0892970875
     C     1.8697521648   -0.9228305468    4.6968835727
     C     1.3203901275    0.1432531083    5.3909751588
     C     0.2697577563   -0.0783886563    6.2983967417
     C    -0.1895923803   -1.3909015425    6.4990537719
     C     0.3605161783   -2.4665218268    5.8078703221
     C     1.3907103692   -2.2283976831    4.9001564480
     C     2.1474871564   -3.1378590861    4.0381951136
     C     3.0852874699   -2.3808742247    3.3135827379
     C     3.9367509890   -3.0045243585    2.4110779534
     C     3.8468976588   -4.3883788169    2.2371326987
     C     2.9151048534   -5.1381079230    2.9597034497
     C     2.0570230312   -4.5185441040    3.8667664728
     C    -0.3182902503    1.0349855136    7.0803712548
     C    -0.4100514570    0.8949074935    8.4714081892
     C    -0.9060590436    1.9065849154    9.2792678744
     C    -1.3373093948    3.1168219839    8.7233969039
     C    -1.2831086824    3.2802563881    7.3097689509
     C    -0.7820462667    2.2314847813    6.4797224609
     C    -0.8130430214    2.4293116758    5.0567587248
     C    -1.2525349788    3.5916488895    4.5053853303
     C    -1.7156496402    4.6762307942    5.3177067690
     C    -1.7380445089    4.5014415073    6.7299698503
     C    -2.2213641268    5.5539913615    7.5607721350
     C    -2.2508026186    5.3576326082    8.9809199504
     C    -1.8312626045    4.1901166218    9.5352998600
     C    -2.6553398004    6.7478799721    6.9685318674
     C    -2.6235408945    6.9100364662    5.5868869137
     C    -2.1614542622    5.8856154104    4.7670394567
     C    -0.1203361004   -0.0603545068   -0.2929073716
     H     1.6272735319    2.4121782579    1.4171105321
     H    -0.0891840749    2.0007631950    1.5825658610
     H     0.5464832493    2.5596637759    0.0257969023
     H     1.9417734742    0.4927321742   -0.1471885497
     H     1.4250643912   -1.4358743760    1.3709754372
     H     0.5028434957   -0.3529536681    2.4064104481
     H     2.5882688384    1.0103148688    2.8032827543
     H     3.4855271239   -0.0717774831    1.7495135056
     H     4.1533530277    0.6870840475    4.5184950150
     H     5.0754393221   -0.3927063057    3.4830473598
     H     5.0011936462   -2.1695551936    5.2321184939
     H     4.0853743870   -1.1067742637    6.2952985201
     H     6.8650070460   -0.4658220169    5.2159597136
     H     5.2481203459    0.8145169896    7.4812520683
     H     5.6028323601    1.5738439172    5.9200673540
     H     6.9170208589    1.2301051051    7.0523936486
     H     6.0709452246   -1.6159391001    7.9422641479
     H     7.7032212329   -1.1095244266    7.4748809879
     H     6.9340202164   -2.4866850686    6.6624253019
     H     1.7050737318    1.1512316523    5.2520932842
     H    -1.0047425409   -1.5625193648    7.1975237369
     H    -0.0183459806   -3.4721570894    5.9739601574
     H     4.6661933584   -2.4287526829    1.8453678323
     H     4.5084546349   -4.8869905807    1.5333970438
     H     2.8588960226   -6.2135781443    2.8124709467
     H     1.3319874610   -5.1038446468    4.4274322931
     H    -0.0523629876   -0.0250870639    8.9264064835
     H    -0.9482336929    1.7714475679   10.3573982522
     H    -0.4901357058    1.6206116739    4.4091495389
     H    -1.2688453487    3.7112593232    3.4243217932
     H    -2.6211181373    6.1664075492    9.6065180363
     H    -1.8611708896    4.0466243916   10.6128731348
     H    -3.0203937387    7.5499036877    7.6057789593
     H    -2.9649092133    7.8424951403    5.1453031240
     H    -2.1430639998    6.0129369018    3.6872487565
     H    -1.0307898982   -0.0810747203    0.3203788760
     H     0.0781842971   -1.0844782642   -0.6305079841
     H    -0.3273539454    0.5545074509   -1.1765656015
