107
-2.3078972256859897e+03 frame 108   xyz file generated by TeraChem
     C    -0.3381827562   -1.1844153993    0.0950824564
     C     0.9913922719   -1.9564733287    0.1308093734
     C     1.8140652112   -1.6162011888   -1.1137127180
     C     2.1942141131   -0.2831744685   -1.3511832321
     C     2.9448079288    0.0861441487   -2.4619744920
     C     3.3345529878   -0.8972131817   -3.3703322230
     C     2.9641622654   -2.2296335249   -3.1520173063
     C     2.2127377900   -2.5884330044   -2.0407919050
     C     3.4815652263   -3.1311968411   -4.2781001304
     C     2.2783467352   -3.7830729028   -4.9689450360
     C     1.6659686920   -3.1956825352   -6.0792822625
     C     0.5214134872   -3.7479622345   -6.6462100223
     C    -0.0267914170   -4.9169692234   -6.1179879162
     C     0.5758788092   -5.5184253837   -5.0107814725
     C     1.7084240594   -4.9489452949   -4.4417289503
     N    -1.1798009839   -5.4926072680   -6.7019456454
     C    -1.3145783026   -5.8675668505   -8.0340857048
     C    -0.3847242648   -5.7946035695   -9.0724779385
     C    -0.7766289422   -6.2605429969  -10.3220452764
     C    -2.0581351379   -6.7914159282  -10.5390412959
     C    -2.9749537001   -6.8729798547   -9.4986651836
     C    -2.6058506469   -6.4112529518   -8.2319353302
     C    -3.2791481592   -6.3563342899   -6.9559794267
     C    -2.3663171219   -5.7842958057   -6.0384273847
     C    -2.7151437920   -5.5556191504   -4.7063681813
     C    -3.9926267059   -5.9260949383   -4.3023693085
     C    -4.9060035889   -6.5072984249   -5.1963383914
     C    -4.5569775275   -6.7222054182   -6.5235193400
     C     4.5065952759   -4.1658924591   -3.8001797445
     C     4.8235931022   -5.2694805935   -4.6021273040
     C     5.7903289077   -6.1887331599   -4.2130364850
     C     6.4795545445   -6.0107256106   -3.0113744025
     C     6.1904575960   -4.9043731961   -2.2123523254
     C     5.2081635590   -3.9997033916   -2.6029440086
     N     7.4499949471   -6.9548498052   -2.5992379647
     C     8.5633827097   -7.3516223996   -3.3300918354
     C     9.0193441533   -6.8913495802   -4.5663560732
     C    10.1895665398   -7.4484801989   -5.0690765051
     C    10.8942757515   -8.4367495298   -4.3633415763
     C    10.4409945801   -8.8832107927   -3.1284995206
     C     9.2676527042   -8.3378050056   -2.5993459025
     C     8.5372804746   -8.5449849414   -1.3710879072
     C     7.4238126188   -7.6728868335   -1.4089764050
     C     6.4843698042   -7.6390945052   -0.3774329178
     C     6.6871570573   -8.4853279537    0.7063626651
     C     7.7927482898   -9.3485211920    0.7664157202
     C     8.7182697048   -9.3857574061   -0.2688774594
     C     4.2021021226   -2.1053658715   -5.1590944837
     C     4.1113126799   -0.8223760023   -4.6065261461
     C     4.7182753372    0.2532779377   -5.2533237134
     C     5.3998610241    0.0256812556   -6.4440005820
     C     5.4985893246   -1.2547884720   -7.0169693103
     C     4.8870475023   -2.3231044633   -6.3478238475
     C     6.2560512315   -1.4374821276   -8.3341464107
     C     7.7148358085   -0.9845466479   -8.1559579204
     C     6.2607464171   -2.8946221923   -8.8043477535
     C     5.5921387963   -0.5826525201   -9.4265560188
     C     1.7783681005   -1.5523839059    1.3885517445
     C     0.6713416538   -3.4506278903    0.2253096488
     H    -0.1798438930   -0.1009294464    0.0733668885
     H    -0.9298225010   -1.4205779961    0.9876395939
     H    -0.9259463352   -1.4607628006   -0.7877958344
     H     1.8941294156    0.4893416084   -0.6476958202
     H     3.2201041674    1.1270145841   -2.6144165690
     H     1.9370696930   -3.6280601524   -1.8957948635
     H     2.0790113857   -2.2865648915   -6.5046809903
     H     0.0475586167   -3.2671954918   -7.4971412989
     H     0.1641145824   -6.4385950949   -4.6064085398
     H     2.1686665066   -5.4368364563   -3.5873457477
     H     0.6098486758   -5.3902883195   -8.9119428239
     H    -0.0714495366   -6.2126692301  -11.1477009058
     H    -2.3311774624   -7.1446180200  -11.5295321303
     H    -3.9645463702   -7.2920069743   -9.6634544784
     H    -2.0174545040   -5.1022646870   -4.0088571490
     H    -4.2878497101   -5.7591767472   -3.2698332582
     H    -5.8954735814   -6.7869434779   -4.8454779809
     H    -5.2666009598   -7.1637035948   -7.2189154230
     H     4.2886752699   -5.4301786494   -5.5337332998
     H     6.0012810656   -7.0561720954   -4.8318609382
     H     6.7364466111   -4.7520459929   -1.2857368053
     H     4.9910964118   -3.1489800175   -1.9646758037
     H     8.4821501729   -6.1244317055   -5.1160462324
     H    10.5650856233   -7.1078057906   -6.0303664655
     H    11.8043157739   -8.8520690593   -4.7872662397
     H    10.9904571435   -9.6425589637   -2.5776194557
     H     5.6243711818   -6.9780843618   -0.4201278534
     H     5.9705904756   -8.4767873610    1.5234757435
     H     7.9212168896   -9.9955424854    1.6296943666
     H     9.5696331055  -10.0605901192   -0.2269435630
     H     4.6621116560    1.2573976530   -4.8397778712
     H     5.8693112718    0.8705058546   -6.9416672579
     H     4.9429638701   -3.3275120681   -6.7555058333
     H     8.2195241429   -1.5819379771   -7.3878783433
     H     7.7790478181    0.0689581473   -7.8640241416
     H     8.2608535725   -1.1075473069   -9.0988873696
     H     6.7448473945   -3.5557475531   -8.0762651921
     H     6.8169023116   -2.9713440181   -9.7452854393
     H     5.2454663432   -3.2655526446   -8.9859240514
     H     5.5969898156    0.4814919278   -9.1678660345
     H     4.5515178356   -0.8889950049   -9.5845900854
     H     6.1304728915   -0.7008679803  -10.3747139507
     H     2.0029189964   -0.4805477085    1.3996176996
     H     2.7266478534   -2.0990040950    1.4474801627
     H     1.1943389872   -1.7827191512    2.2878155520
     H     0.0862335169   -3.7965072803   -0.6346921040
     H     0.0793294654   -3.6387044455    1.1279696566
     H     1.5805644214   -4.0595201816    0.2913513918
