131
-2.6220195941016573e+03 frame 100   xyz file generated by TeraChem
     C     8.6489538034    0.3152355644   -5.0172598418
     C     7.1478253437    0.1286692029   -5.2937335187
     C     6.3542955069    1.2130989771   -4.5596451548
     C     6.6019094736    2.5714816891   -4.8600539549
     C     5.9237566872    3.6168124408   -4.2500783514
     C     4.9522713134    3.2963947453   -3.3010553146
     C     4.6903579340    1.9520578574   -2.9622797019
     C     5.3912844221    0.9201420885   -3.5969155495
     C     3.6725678995    1.9738028718   -1.9370486450
     C     3.0012006067    0.9693245728   -1.2307153924
     C     2.0267632906    1.3011745444   -0.2922273274
     C     1.7407952440    2.6696944166   -0.0870912823
     C     2.3865547888    3.6886901728   -0.7721118281
     C     3.3672518350    3.3305082499   -1.6979677417
     N     4.1470307696    4.1290945146   -2.5294868446
     C     4.0974776214    5.5384266526   -2.6100406057
     C     4.2150973447    6.3189804087   -1.4577058062
     C     4.1558037346    7.7052614717   -1.5453524113
     C     4.0069040148    8.3501139673   -2.7790298661
     C     3.8943243396    7.5552853459   -3.9234989166
     C     3.9280190777    6.1674655741   -3.8446839516
     C     3.8631966097    9.8738877332   -2.8551322959
     C     4.7675365786   10.6108103306   -1.8604863761
     C     6.0757196428   10.1716986037   -1.6239474164
     C     6.9344141598   10.8774055224   -0.7892330015
     C     6.5084888067   12.0633957554   -0.1860663304
     C     5.2117991158   12.5210318435   -0.4251968376
     C     4.3535440674   11.7950242466   -1.2440696591
     N     7.3783068803   12.7904644655    0.6564116262
     C     8.6702361923   13.2000451875    0.3385842450
     C     9.4011970891   13.0282334447   -0.8374469712
     C    10.6766999112   13.5720522651   -0.8919354171
     C    11.2552542883   14.2887939321    0.1791544372
     C    10.5004180301   14.4562588544    1.3380780037
     C     9.2113108330   13.9194784464    1.4247709370
     C     8.1958331331   13.9439494069    2.4534743099
     C     7.0820962366   13.2405266788    1.9400644010
     C     5.9371761860   13.0599348503    2.7109030274
     C     5.9164461900   13.6113265457    3.9887249574
     C     7.0001261842   14.3315834399    4.5271700663
     C     8.1439762324   14.4834343395    3.7390388501
     C     6.9631318339   14.9415023397    5.9329825305
     C     5.6306771699   14.6902236970    6.6438654392
     C     8.0850429058   14.3292073475    6.7870879374
     C     7.1730083668   16.4613340735    5.8380671957
     C    12.6722006550   14.8486962754    0.0253546603
     C    12.7177049248   15.8127786602   -1.1718942774
     C    13.1306481903   15.6164711810    1.2686266655
     C    13.6545215204   13.6912965677   -0.2168379731
     C     4.1414875573   10.4310584290   -4.2539987386
     C     5.3307209044   10.4167044732   -4.9696936791
     C     5.3622768640   11.0001082561   -6.2380364319
     C     4.2182957335   11.5940121950   -6.7769093714
     C     3.0234199185   11.6119959028   -6.0601973301
     C     2.9910779884   11.0250229303   -4.7957842048
     C     1.8974527352   10.8891466481   -3.8320328170
     C     2.3827893051   10.2274808116   -2.6930967045
     C     1.5425335416    9.9642881491   -1.6197708133
     C     0.2087202036   10.3715911814   -1.6907680133
     C    -0.2751623762   11.0295085767   -2.8242052302
     C     0.5650998263   11.2932204349   -3.9043198239
     C     1.2615584650    0.2489339516    0.5151360104
     C     1.5319649952    0.4612116288    2.0140369259
     C    -0.2463283007    0.3907407842    0.2479433021
     C     1.6756067086   -1.1784344199    0.1497985823
     C     6.8935408161    0.2431662140   -6.8061649693
     C     6.7511069522   -1.2817033425   -4.8512082686
     H     9.0030354352    1.2951649797   -5.3544421060
     H     9.2286640149   -0.4513116934   -5.5459813790
     H     8.8612013856    0.2263302427   -3.9455722124
     H     7.3569523934    2.8213432621   -5.6008351088
     H     6.1492951126    4.6471949938   -4.5072628368
     H     5.1746977173   -0.1082706515   -3.3242879110
     H     3.2484340473   -0.0691145986   -1.4290939943
     H     0.9803441748    2.9491566703    0.6374250326
     H     2.1285603137    4.7273793526   -0.5898350417
     H     4.3650572925    5.8407567977   -0.4942235404
     H     4.2517366856    8.2919322728   -0.6360998206
     H     3.7632844322    8.0210314487   -4.8954462166
     H     3.8128724360    5.5691288684   -4.7437613508
     H     6.4294971854    9.2513851307   -2.0801363501
     H     7.9349522436   10.5021323427   -0.5953069285
     H     4.8761724579   13.4521605955    0.0219905257
     H     3.3495675522   12.1723242496   -1.4127851310
     H     8.9925028450   12.4921490932   -1.6884276222
     H    11.2466358722   13.4354050168   -1.8072242890
     H    10.8990053587   15.0082408341    2.1837193616
     H     5.0813210265   12.5070632702    2.3362010734
     H     5.0193301297   13.4690200905    4.5820148691
     H     9.0070284821   15.0220735404    4.1236546315
     H     5.4352053495   13.6201076079    6.7791431070
     H     4.7878967689   15.1268292366    6.0953504379
     H     5.6551013186   15.1515615295    7.6377669668
     H     7.9490972597   13.2464312937    6.8914095946
     H     8.0826322375   14.7724681468    7.7904213056
     H     9.0712331908   14.5047119828    6.3441617401
     H     6.3807351374   16.9283268915    5.2414418470
     H     8.1352781497   16.7105026320    5.3779118025
     H     7.1544808302   16.9078560737    6.8397926878
     H    12.0332217003   16.6550837110   -1.0186917172
     H    12.4392788912   15.3155751307   -2.1071597365
     H    13.7309710308   16.2145340415   -1.2953139469
     H    12.4778849530   16.4715497961    1.4781576510
     H    14.1436343641   16.0013885097    1.1057205322
     H    13.1565387742   14.9761474207    2.1579311137
     H    13.4024876097   13.1321106656   -1.1242467996
     H    13.6461796699   12.9915084911    0.6267397249
     H    14.6746320818   14.0777365538   -0.3318549608
     H     6.2261221274    9.9592504207   -4.5562207736
     H     6.2864198296   10.9931452396   -6.8097352532
     H     4.2612224527   12.0464470273   -7.7641584286
     H     2.1343069737   12.0744679216   -6.4817017543
     H     1.9112803777    9.4512329293   -0.7350201599
     H    -0.4589215491   10.1726458968   -0.8566678830
     H    -1.3166933132   11.3374239950   -2.8643294096
     H     0.1854859067   11.8041988156   -4.7856669898
     H     1.2157525620    1.4568416311    2.3429915828
     H     2.5998712636    0.3520422549    2.2357090000
     H     0.9816808981   -0.2796429298    2.6070238076
     H    -0.6179741838    1.3810671263    0.5311728078
     H    -0.8041612617   -0.3548989307    0.8277077210
     H    -0.4699165556    0.2342303419   -0.8137123466
     H     2.7382245618   -1.3594946398    0.3492953493
     H     1.4813497485   -1.3985792927   -0.9063208747
     H     1.0981768899   -1.8898988301    0.7509111551
     H     7.1971262551    1.2206036585   -7.1957376406
     H     5.8306739454    0.1012693092   -7.0336484894
     H     7.4633696670   -0.5244206556   -7.3441435315
     H     6.9383330489   -1.4429774820   -3.7831270776
     H     7.3428881927   -2.0178274424   -5.4070898337
     H     5.6926459443   -1.4866508164   -5.0495422946
