76
-1.6731122778867330e+03 frame 73   xyz file generated by TeraChem
     C     1.4465498979    6.1664374238   -0.8168145919
     C     1.3926005083    6.4525796760    0.6922899741
     C     2.7581997622    6.2891741221    1.3905127838
     C     3.4051115064    7.4336140074    1.8744763450
     C     4.5308529824    7.4184873624    2.7054217132
     C     5.0554279313    6.2140964967    3.1344842326
     C     4.4853408462    5.0421355068    2.6397412976
     C     3.3978404979    5.0632083476    1.7235982466
     N     3.0894982472    3.7210387626    1.3947003912
     C     2.6618990403    3.2285043297    0.1187181478
     C     1.4827974760    2.4817211512    0.0359602999
     C     1.0481777571    1.9274038305   -1.1759367513
     C     1.8578310337    2.1582916041   -2.2729683928
     C     3.0494630980    2.8711668232   -2.1842404743
     C     3.4977050814    3.4183174221   -0.9970758151
     C     3.4362288706    2.6611554504   -3.6451355684
     C     3.7604040888    3.8146606966   -4.5326230942
     C     3.4713310369    5.1288227645   -4.1450874357
     C     3.7285864929    6.1974114283   -5.0001134145
     C     4.2787230049    5.9712115691   -6.2600692623
     C     4.5708895606    4.6672496784   -6.6570041418
     C     4.3156876411    3.5998142750   -5.8012760093
     C     4.0826979732    1.2998437710   -3.8801143835
     C     2.8829734841    0.6048071615   -3.9793245236
     C     2.0038729513    1.8282029544   -3.7532174638
     C     0.9341305617    2.2074656400   -4.7196248722
     C     0.8514449387    1.5983779538   -5.9777817481
     C    -0.1192157314    1.9907334802   -6.8963320879
     C    -1.0225313521    3.0014733580   -6.5740554571
     C    -0.9483637320    3.6162524068   -5.3250094125
     C     0.0193660349    3.2216421671   -4.4061577245
     C     2.8328351410   -0.7679205548   -4.1583715138
     C     4.0722400721   -1.4172970573   -4.2469525809
     C     5.2797805819   -0.7169905255   -4.1496941988
     C     5.3143640066    0.6714443349   -3.9568132814
     C     3.9542268056    2.8878118749    2.1138094805
     C     4.8158291707    3.6638569170    2.9066436254
     C     5.7600625770    3.0411034051    3.7278182003
     C     5.8348912935    1.6538056108    3.7276318358
     C     4.9838812589    0.8927767447    2.9108864387
     C     4.0377060230    1.4955566136    2.0892787750
     C     0.8501522971    7.8854070352    0.8281377392
     C     0.3640754713    5.5436577901    1.3851078060
     H     2.2066645178    6.7925730814   -1.2993757938
     H     0.4761262424    6.4067221681   -1.2688489551
     H     1.6675786706    5.1244067231   -1.0457723323
     H     2.9917585466    8.4036571089    1.6264163799
     H     4.9564774365    8.3596232044    3.0428451212
     H     5.8898366274    6.1710107501    3.8297374313
     H     0.8977223040    2.3378170603    0.9399329395
     H     0.1222660443    1.3613768712   -1.2266697599
     H     4.4209526573    3.9833275593   -0.8997364679
     H     3.0457712856    5.3173665432   -3.1635380842
     H     3.5006654805    7.2102419039   -4.6776586666
     H     4.4827705850    6.8052866717   -6.9263008052
     H     5.0040281420    4.4792426047   -7.6361439152
     H     4.5526567476    2.5873332293   -6.1171574277
     H     1.5497426203    0.8065960895   -6.2357457091
     H    -0.1705352820    1.5019764338   -7.8659420312
     H    -1.7821736405    3.3054158143   -7.2894369934
     H    -1.6492956665    4.4043974863   -5.0620955860
     H     0.0660791010    3.7021188389   -3.4324197354
     H     1.9017828945   -1.3229591087   -4.2377894182
     H     4.0994432395   -2.4936415617   -4.3974077261
     H     6.2143091125   -1.2671800274   -4.2257421966
     H     6.2588983453    1.2043313139   -3.8852654001
     H     6.4262267041    3.6324359189    4.3512646541
     H     6.5608217693    1.1510720241    4.3607268316
     H     5.0633284789   -0.1911311035    2.9191373675
     H     3.3856416741    0.9020286364    1.4556131704
     H     1.4490380702    8.6148799997    0.2713781318
     H     0.7898356248    8.2077441726    1.8734879738
     H    -0.1623492496    7.9093905663    0.4104355563
     H     0.6581088327    4.4936214243    1.3777191173
     H    -0.6062150781    5.6270504744    0.8810409154
     H     0.2319011559    5.8477829930    2.4301089776
