99
-2.1946699345167644e+03 frame 41   xyz file generated by TeraChem
     C     0.9113799156   -0.6158400474   -0.6130690431
     C     2.4425697810   -0.6011590902   -0.5017589846
     C     3.0738041693   -0.6331518498   -1.9019958491
     C     2.9500394875   -1.7506324781    0.3541728594
     C     2.8022845876   -3.1097001928    0.1465374049
     C     3.3619518831   -4.0138139529    1.0734027002
     C     3.2191593715   -5.4142208898    0.8822998068
     C     3.0929458580   -6.6153346073    0.7175720962
     C     2.9493915722   -8.0148408001    0.5412876194
     C     2.2075203835   -8.5311818234   -0.5233383996
     C     1.4245001014   -7.6604009867   -1.4357554404
     C     0.4368700178   -8.1184998698   -2.2680239466
     C     0.2961929547   -9.5677130930   -2.0887706736
     C     1.5472998733  -10.1125106307   -2.0513596690
     C     2.1621649300   -9.9665059352   -0.7151367089
     C     2.7301697586  -10.8452770995    0.1822080394
     C     3.4202930734  -10.3258954998    1.3357701270
     C     3.5590826003   -8.9131101901    1.4931795757
     C     4.2881919946   -8.4114727399    2.5950867228
     C     4.8421428008   -9.2825701202    3.5067999622
     C     5.6379720707   -9.0349337567    4.7090138131
     C     6.0747697215   -7.8402532312    5.2809599259
     C     6.8414008386   -7.8964045898    6.4426787514
     C     7.1658101943   -9.1265877004    7.0214685729
     C     6.7256563446  -10.3219618941    6.4487805903
     C     5.9601636453  -10.2728209680    5.2910178221
     C     5.3648813804  -11.4270821417    4.5001076029
     C     4.6857965970  -10.6855741561    3.3606931472
     C     3.9905297468  -11.1966926830    2.2945266231
     C     6.4473398680  -12.3874941509    3.9888853487
     C     4.3364844742  -12.1989133956    5.3426636431
     C     2.6459137579  -12.2413876586   -0.0534755429
     C     2.5730914583  -13.4376356053   -0.2706342378
     C     2.4857030785  -14.8308288935   -0.5362567506
     C     1.7978806303  -15.2874387095   -1.6788158429
     C     1.7056706855  -16.6444677596   -1.9575816015
     C     2.3051752043  -17.5565931055   -1.0882405035
     C     2.9913430361  -17.1114488354    0.0566618733
     C     3.0863979356  -15.7607397117    0.3374501343
     C     3.5495343829  -18.2843264219    0.8464706446
     C     5.0798761014  -18.2144560572    0.9500033678
     C     2.9293129991  -18.3501961862    2.2504364819
     C     3.0997718205  -19.4570748833   -0.0098039609
     C     2.3734417934  -19.0157990287   -1.1297895998
     C     1.8592897647  -19.9254795159   -2.0537039083
     C     2.0799921601  -21.2853882031   -1.8455798373
     C     2.8020416365  -21.7264600576   -0.7334213933
     C     3.3159164762  -20.8138612641    0.1914792547
     C     4.0631905858   -3.5227615829    2.1936184806
     C     4.2084515051   -2.1574737958    2.3987421555
     C     3.6495942413   -1.2711601183    1.4770910698
     C     3.6401090934    0.1895217603    1.4385392755
     C     2.9344945489    0.5975537864    0.2930191242
     C     2.7727450452    1.9489467345    0.0177863035
     C     3.3214822513    2.8893157450    0.8935233343
     C     4.0241217110    2.4811510630    2.0304583062
     C     4.1895873617    1.1269128911    2.3130948697
     H     0.5746075887   -1.5186168903   -1.1349679815
     H     0.5622528466    0.2545162276   -1.1797764605
     H     0.4446803816   -0.5942180389    0.3770168272
     H     2.7640542336   -1.5349044153   -2.4422180412
     H     4.1669569791   -0.6257632789   -1.8400213088
     H     2.7546232576    0.2386974068   -2.4840123341
     H     2.2642283858   -3.4954421176   -0.7157162290
     H     1.5565008295   -6.5876983641   -1.3020264922
     H    -0.2644136718   -7.4319186523   -2.7410064961
     H    -0.4685506869   -9.8917055940   -1.3756637098
     H     2.2219361082   -9.7033341670   -2.8126512881
     H     4.3986979909   -7.3365966442    2.7080226742
     H     5.8253577123   -6.8822972913    4.8306875433
     H     7.1915411618   -6.9760258778    6.9026070633
     H     7.7667992229   -9.1528011461    7.9267389384
     H     6.9819390323  -11.2745481079    6.9073587317
     H     3.8693783261  -12.2691254844    2.1624950420
     H     7.1953915323  -11.8590710261    3.3889463938
     H     5.9990376866  -13.1733249168    3.3705045098
     H     6.9564885025  -12.8691797599    4.8312016372
     H     3.5507803486  -11.5320699440    5.7125313408
     H     4.8258338742  -12.6673763932    6.2040166726
     H     3.8679439944  -12.9887979851    4.7447816628
     H     1.3401535717  -14.5597834479   -2.3424740160
     H     1.1733159427  -16.9834487196   -2.8425487382
     H     3.6142822278  -15.4012526424    1.2171947030
     H     5.3840523149  -17.3279471680    1.5177505102
     H     5.5400222731  -18.1651589016   -0.0422053136
     H     5.4676675452  -19.0990155756    1.4675904919
     H     3.2138021626  -17.4686275945    2.8359236315
     H     3.2825488679  -19.2404178755    2.7830108755
     H     1.8365254818  -18.3915718382    2.1958559696
     H     1.2979010465  -19.5835533919   -2.9197987066
     H     1.6876454940  -22.0098896518   -2.5544453669
     H     2.9653030226  -22.7909408601   -0.5863783011
     H     3.8761343606  -21.1684084713    1.0538765139
     H     4.4894465698   -4.2296923498    2.8995704754
     H     4.7502311222   -1.7919762306    3.2672630727
     H     2.2288922173    2.2780932346   -0.8648826087
     H     3.2010287292    3.9498786108    0.6883313740
     H     4.4447166990    3.2269747393    2.6999014615
     H     4.7358837568    0.8108565682    3.1984567678
