166
-4.1988306146309496e+03 frame 131   xyz file generated by TeraChem
     C     0.1076925814    0.5027305933    3.7846003892
     C     0.0547103512    1.3733596843    2.5198834373
     C     0.2581278438    2.8489896084    2.8953189717
     C     1.0767410948    0.9205071674    1.4899291916
     C     2.4587411859    0.8846004570    1.6008261290
     C     3.2319597096    0.4413789081    0.5165011733
     C     2.5908567178    0.0319145067   -0.6630704841
     C     1.2041662557    0.0647266977   -0.7807831893
     C     0.4484749650    0.5140588344    0.3006482588
     C    -0.9963661381    0.6741939061    0.4648636421
     C    -1.2434804415    1.1727359535    1.7547296756
     C    -2.5424982557    1.4312076972    2.1684931493
     C    -3.6224662570    1.2030183196    1.2967719257
     C    -3.3490656454    0.7080182432    0.0068460745
     C    -2.0502140100    0.4358718574   -0.4160570939
    Si    -5.3995664188    1.5387427700    1.8330092604
     C    -6.2940782991    2.4204766329    0.4227117650
     C    -7.6469704175    2.1731392734    0.1424247843
     C    -8.3118315002    2.8593630374   -0.8724161625
     C    -7.6328866624    3.8109864383   -1.6309759159
     C    -6.2879011148    4.0703292742   -1.3729506848
     C    -5.6275971139    3.3792672531   -0.3589008963
     C    -6.2880973850   -0.0771555549    2.2378515899
     C    -7.4390174252   -0.0762321987    3.0440415718
     C    -8.1320615271   -1.2542092577    3.3158405249
     C    -7.6830081520   -2.4638706097    2.7886388023
     C    -6.5407129111   -2.4888051162    1.9910590268
     C    -5.8527380390   -1.3070297859    1.7206268016
     C    -5.4017761637    2.6261384825    3.3758698970
     C    -5.5768643092    4.0162599830    3.2935944109
     C    -5.5353524175    4.8181346258    4.4329741647
     C    -5.3162362421    4.2425013001    5.6830425506
     C    -5.1418052201    2.8634348148    5.7887729803
     C    -5.1869215523    2.0664158452    4.6467513500
     C     4.7187488747    0.4222848173    0.6023250538
     C     5.4110350975   -0.8053430602    0.6530031215
     C     4.7220372506   -2.0579817281    0.6798945947
     C     5.4010299706   -3.2440969398    0.7199807579
     C     6.8210308765   -3.2572599705    0.7384596089
     C     7.5201311074   -2.0826720491    0.7297451332
     C     6.8512168180   -0.8200639952    0.6956323504
     C     7.5696629471    0.3907923652    0.7050138869
     C     6.8789785425    1.6174544231    0.6777255928
     C     5.4394080507    1.6350445029    0.6152251656
     C     4.7839261237    2.9037581343    0.5383709053
     C     5.4910245783    4.0738792453    0.5524125563
     C     6.9083383122    4.0547899215    0.6396852239
     C     7.5775573639    2.8642267168    0.6946054396
     C     9.0625251211    0.3722551534    0.7227273926
     C     9.7759082080    0.3709639125   -0.4915631614
     C     9.1016317515    0.3921470673   -1.7516580430
     C     9.7952623567    0.3720655852   -2.9293722711
     C    11.2144832550    0.3210992608   -2.9225527575
     C    11.8988791650    0.3031450305   -1.7390568608
     C    11.2162609285    0.3382567334   -0.4831115897
     C    11.9142730780    0.3202223083    0.7420319584
     C    11.1993874181    0.3294355481    1.9571808280
     C     9.7586301462    0.3510399906    1.9462275451
     C     9.0663655986    0.3558329523    3.1965277850
     C     9.7440695254    0.3509406692    4.3836813148
     C    11.1643503066    0.3472249749    4.3962469685
     C    11.8654114359    0.3386031695    3.2224321266
     C    13.4035091556    0.2840664494    0.7508936208
     C    14.1422114212    1.4228188675    0.3950995986
     C    15.5345445168    1.4085067682    0.3921281708
     C    16.1951094325    0.2342030463    0.7481985542
     C    15.4673635274   -0.9136063107    1.1056992036
     C    14.0805880674   -0.8913202047    1.1103347778
     C    16.3978356933   -2.0668106337    1.4441199327
     C    16.2093941327   -2.5319974710    2.8957004856
     C    16.1931539509   -3.2483142565    0.4839519027
     C    17.7571031790   -1.4180455477    1.2379364180
     C    17.6215029085   -0.0796529116    0.8318271761
     C    18.7471687448    0.7010507384    0.5773481135
     C    20.0078299737    0.1288428744    0.7335884233
     C    20.1705438940   -1.2077385301    1.1397896514
     C    19.0173738792   -1.9778041508    1.3881939762
    Si    21.8881737607   -1.9458163711    1.3926807122
     C    23.1642764820   -0.9594046546    0.4119204329
     C    23.6846434764    0.2465544889    0.9113644087
     C    24.5932530706    1.0023497079    0.1730799713
     C    25.0070106728    0.5622290717   -1.0832644172
     C    24.5082828483   -0.6339929817   -1.5954678178
     C    23.5971784069   -1.3839149913   -0.8539694740
     C    22.3533048232   -1.8958243919    3.2208681768
     C    21.3710110106   -1.8399846567    4.2220390772
     C    21.7154126034   -1.8451711884    5.5727058251
     C    23.0555231222   -1.9065013126    5.9500877893
     C    24.0478396070   -1.9614479833    4.9728713482
     C    23.6982222451   -1.9537797196    3.6238401798
     C    21.8701694729   -3.7361268313    0.7928251780
     C    21.1485702086   -4.1049548439   -0.3551203127
     C    21.1654664211   -5.4153123584   -0.8293980286
     C    21.9049740172   -6.3889597934   -0.1599914378
     C    22.6249674208   -6.0460493624    0.9827714379
     C    22.6054877619   -4.7336723614    1.4518340902
     H     1.0772654966    0.6163626036    4.2820968489
     H    -0.0367141957   -0.5553583984    3.5430403370
     H    -0.6742117608    0.8080927031    4.4889261986
     H     1.2250635902    2.9864008709    3.3923909061
     H    -0.5272147703    3.1786994228    3.5848160494
     H     0.2304014833    3.4905407870    2.0081332260
     H     2.9543876650    1.2008053879    2.5163617923
     H     3.1949958673   -0.3080223330   -1.5003850530
     H     0.7271246680   -0.2500619454   -1.7057083007
     H    -2.7268620158    1.8209599938    3.1682193568
     H    -4.1692803392    0.5418984921   -0.6889891732
     H    -1.8668231794    0.0548297460   -1.4178867712
     H    -8.1911495931    1.4300144857    0.7216624373
     H    -9.3594241401    2.6487410138   -1.0730386293
     H    -8.1493959457    4.3462230645   -2.4238318297
     H    -5.7510480569    4.8078225817   -1.9644592579
     H    -4.5739142333    3.5847134997   -0.1800712070
     H    -7.7980303843    0.8565948172    3.4747720002
     H    -9.0196550035   -1.2283958908    3.9431233291
     H    -8.2198101971   -3.3848158862    3.0022050525
     H    -6.1824435958   -3.4301610763    1.5816871674
     H    -4.9589633701   -1.3462403790    1.1014038112
     H    -5.7547998417    4.4811114955    2.3258538115
     H    -5.6775010704    5.8924809161    4.3455218143
     H    -5.2849816787    4.8659299153    6.5730847499
     H    -4.9747725158    2.4081888225    6.7618595217
     H    -5.0610202502    0.9901823859    4.7498674638
     H     3.6370175149   -2.0542938581    0.6728305396
     H     4.8540732813   -4.1828644778    0.7420829210
     H     7.3503793375   -4.2059358638    0.7662063520
     H     8.6054613167   -2.0931971355    0.7530302391
     H     3.7018088266    2.9266172975    0.4637777457
     H     4.9685427741    5.0248747342    0.4925106728
     H     7.4597554555    4.9910820637    0.6545888069
     H     8.6616144003    2.8492211617    0.7517919802
     H     8.0165240913    0.4229455796   -1.7582775469
     H     9.2616381774    0.3885548663   -3.8759090290
     H    11.7562597938    0.2925262125   -3.8641491195
     H    12.9829578412    0.2573231101   -1.7400833465
     H     7.9807328862    0.3667673705    3.1867213785
     H     9.1975369478    0.3557445969    5.3229491777
     H    11.6937120628    0.3556078258    5.3452804360
     H    12.9503812975    0.3422146561    3.2382808673
     H    13.6112990394    2.3303161815    0.1190241660
     H    16.0894275098    2.3017869517    0.1158539744
     H    13.5081504031   -1.7751184833    1.3845442853
     H    15.2044084535   -2.9460880622    3.0352421364
     H    16.3414457188   -1.7009681940    3.5963626203
     H    16.9358504785   -3.3140607435    3.1433941559
     H    15.1893659443   -3.6707900011    0.6063798756
     H    16.9216031398   -4.0402847721    0.6914457077
     H    16.3120226887   -2.9344670892   -0.5583193730
     H    18.6501967420    1.7360416858    0.2578954488
     H    20.8867375684    0.7360390116    0.5279786212
     H    19.1136080648   -3.0197597580    1.6903249828
     H    23.3840627518    0.5985431114    1.8963821899
     H    24.9824378100    1.9322828269    0.5802549668
     H    25.7191322955    1.1479306048   -1.6591850646
     H    24.8317685957   -0.9852913766   -2.5721881686
     H    23.2216465487   -2.3178445707   -1.2670173629
     H    20.3198174052   -1.7857759841    3.9457893396
     H    20.9374872866   -1.7973710677    6.3307549703
     H    23.3260333308   -1.9082226328    7.0030224370
     H    25.0952991913   -2.0060147783    5.2606543340
     H    24.4878886783   -1.9837013838    2.8752673183
     H    20.5555921360   -3.3612785371   -0.8843003176
     H    20.5977178630   -5.6771288791   -1.7188635759
     H    21.9170572730   -7.4125183969   -0.5261418945
     H    23.1994851547   -6.8022807135    1.5120595551
     H    23.1686930180   -4.4862594217    2.3494164515
