44
-1.2362078563234268e+03 frame 51   xyz file generated by TeraChem
     C     1.0783354801    2.2677493387   -0.5124096647
     O     2.4929853328    2.1544120754   -0.7034549181
     C     3.0640249179    1.0765469097   -0.1651394720
     O     2.4525509597    0.2092289929    0.4256025531
     C     4.5445342834    1.0810060976   -0.3281869802
     C     5.2284194426    2.2773915993   -0.3131942657
     C     6.6408179937    2.3134246363   -0.2977096267
     N     7.2654746547    3.5244194504   -0.2854514664
     C     8.5704273658    3.4424810281   -0.2645880558
     N     9.4480844095    4.4857045851   -0.2648402657
     C     9.0768945292    5.8904258047   -0.2453955651
     C     9.0668175841    6.4778856517    1.1591604979
     C    10.7427179907    3.9748293684   -0.2247702209
     C    10.7093450781    2.5599911897   -0.2153483508
     C     9.3155323974    2.1974700090   -0.2417786152
     N     8.7238264532    1.0299803264   -0.2484946024
     C     7.3610846772    1.0776590706   -0.2775790476
     C     6.6394732892   -0.1366154160   -0.2977239850
     C     5.2646376020   -0.1485053270   -0.3409670101
     C     4.5980085356   -1.4779312564   -0.4693232326
     O     4.8810232797   -2.4497443234    0.1994852564
     O     3.7125391242   -1.4878023710   -1.4663959213
     C     2.9943119034   -2.7118322573   -1.6481263544
     C    11.8951349876    1.8243553335   -0.1901232855
     C    13.1017418068    2.5120426447   -0.1727660605
     C    13.1210391127    3.9152979625   -0.1801821034
     C    11.9502157856    4.6683624325   -0.2049218887
     H     0.7904450209    3.1936282547   -1.0087561845
     H     0.8408643701    2.3140279069    0.5532145356
     H     0.5659887052    1.4152918997   -0.9645618669
     H     4.6938027581    3.2212270176   -0.2840397545
     H     8.0856565810    5.9589221546   -0.7012904145
     H     9.7745921017    6.4298715172   -0.8937285356
     H     8.3457413095    5.9520480281    1.7929320720
     H     8.7828583211    7.5342920140    1.1156717669
     H    10.0548021569    6.4078112894    1.6253791175
     H     7.1993663843   -1.0671619404   -0.3068249612
     H     2.3162376710   -2.5318229502   -2.4815847667
     H     2.4319788316   -2.9574961309   -0.7438092982
     H     3.6828055034   -3.5267431756   -1.8844468859
     H    11.8662866472    0.7383787085   -0.1844407050
     H    14.0386128168    1.9634078842   -0.1524962701
     H    14.0764759189    4.4327578040   -0.1646171497
     H    11.9836871453    5.7532866872   -0.2069059877
