62
-1.3859988558758978e+03 frame 70   xyz file generated by TeraChem
     C     1.6329266148   -0.6289931175   -0.0427615617
     C     3.0175679433    0.0327854153   -0.1343324047
     C     3.5496834327   -0.1240665631   -1.5612346170
     C     3.8152198604    0.9660245467   -2.3920324376
     C     4.2768394804    0.8026499139   -3.7069756792
     C     4.5303986566    1.9183567055   -4.5699732669
     C     4.9651325328    1.7426275665   -5.8470070970
     C     5.1995106824    0.4332460914   -6.3891498670
     C     4.9478708550   -0.6944411451   -5.5522005671
     C     4.4893042369   -0.5044058082   -4.2177553821
     C     4.2286037033   -1.6238227672   -3.3782998675
     C     3.7666109646   -1.4090110949   -2.0765931110
     C     4.4433445882   -2.9429109337   -3.9030933690
     C     4.8793885918   -3.1288873193   -5.1765792298
     C     5.1419427095   -2.0161599038   -6.0445837782
     C     5.5774592522   -2.1863476307   -7.3635456449
     C     5.8163763213   -1.0866845159   -8.1776897385
     C     5.6398930157    0.2225127740   -7.7161116011
     C     5.9383168912    1.3614557705   -8.6257729106
     C     7.0444669686    2.1787911986   -8.3663184450
     C     7.3844960657    3.2315039824   -9.2051638859
     C     6.6208201966    3.5127392704  -10.3448557167
     C     5.4845900751    2.7026861443  -10.6270370752
     C     5.1398209477    1.6208312260   -9.7633814708
     C     3.9690299703    0.8491113169  -10.0756416099
     C     3.2118877004    1.1172494150  -11.1724178217
     C     3.5445533594    2.1877017318  -12.0651518308
     C     4.6896244704    2.9824305253  -11.7765930099
     C     5.0346642328    4.0619774290  -12.6399713213
     C     6.1890219174    4.8550308161  -12.3291351079
     C     6.9463802121    4.5922064735  -11.2315155055
     C     4.2377365858    4.3187664366  -13.7641396464
     C     3.1217365999    3.5339303887  -14.0393584932
     C     2.7757832461    2.4791551870  -13.2003251071
     C     2.8797395956    1.5006063108    0.2791799905
     C     3.9753958379   -0.6558290032    0.8514329446
     H     0.9262359230   -0.1542337197   -0.7333263439
     H     1.2347931303   -0.5296799887    0.9744126778
     H     1.6790066325   -1.6963434020   -0.2844401732
     H     3.6618891679    1.9796855993   -2.0339910424
     H     4.3583049595    2.9206060682   -4.1839305951
     H     5.1377439391    2.6060832182   -6.4821035978
     H     3.5691921171   -2.2815547215   -1.4579625871
     H     4.2450517629   -3.7946956861   -3.2564743559
     H     5.0355363748   -4.1321329210   -5.5663942455
     H     5.7304811707   -3.1918508012   -7.7482252550
     H     6.1591912118   -1.2399851611   -9.1978106268
     H     7.6545444062    1.9706726848   -7.4911314342
     H     8.2542101604    3.8456191576   -8.9841653127
     H     3.6912904173    0.0385918232   -9.4095363638
     H     2.3284116244    0.5211346956  -11.3886892300
     H     6.4440451904    5.6765081011  -12.9945355512
     H     7.8184644338    5.1998586819  -11.0019311410
     H     4.5032636230    5.1434793540  -14.4212445807
     H     2.5151821315    3.7475678413  -14.9153751433
     H     1.9018797974    1.8690816374  -13.4163782999
     H     2.1727199456    2.0408175339   -0.3608382621
     H     3.8431174978    2.0222086345    0.2474915294
     H     2.5040536582    1.5520023045    1.3071102622
     H     4.0830362437   -1.7239421544    0.6357964936
     H     3.5925613542   -0.5581039160    1.8743963073
     H     4.9710053478   -0.1987293327    0.8145837415
