116
-2.8685010008272748e+03 frame 80   xyz file generated by TeraChem
     C     0.0058890289   -1.0193773883   -2.2079363554
     C    -0.0008317099   -1.2433347920   -0.6871577666
     C    -0.0158737190   -2.7477753269   -0.3805009331
     C     1.1774310733   -0.5472159728   -0.0258670600
     C     2.5333835737   -0.7724496859   -0.2138399771
     C     3.4823583281   -0.0058337691    0.4859886969
     C     3.0207521092    0.9896275110    1.3685315698
     C     1.6617334044    1.2206048991    1.5697909608
     C     0.7403414916    0.4454811518    0.8675813108
     C    -0.7229832808    0.4585257900    0.8625759191
     C    -1.1708625593   -0.5262399852   -0.0345698535
     C    -2.5286430682   -0.7300195689   -0.2327344436
     C    -3.4566189131    0.0564644995    0.4653579801
     C    -2.9976450500    1.0383443863    1.3558776171
     C    -1.6359342802    1.2456055017    1.5619007720
     C    -4.9201801005   -0.1459175742    0.2637350917
     C    -5.5957547118   -1.1590805844    0.9714233047
     C    -4.9144180040   -2.0088718239    1.8969039579
     C    -5.5766832064   -2.9911005553    2.5794943216
     C    -6.9692430090   -3.1889838287    2.3793996136
     C    -7.6606155833   -2.3948964232    1.5073080679
     C    -7.0102526266   -1.3528644213    0.7774218186
     C    -7.7202448834   -0.5232385476   -0.1120742257
     C    -7.0443647043    0.4902243790   -0.8192067623
     C    -5.6278084299    0.6771730679   -0.6337118358
     C    -4.9744266734    1.7045501343   -1.3824004749
     C    -5.6683427551    2.5020037959   -2.2494645190
     C    -7.0673296811    2.3251930299   -2.4228117332
     C    -7.7307719504    1.3511309287   -1.7297878342
     C    -9.1893702087   -0.7143600798   -0.3014013219
     C   -10.0981034067   -0.1064335040    0.5862900630
     C    -9.6491457238    0.7032554685    1.6749171747
     C   -10.5333223075    1.2745615461    2.5470343779
     C   -11.9297897447    1.0695756817    2.3875908494
     C   -12.4021984045    0.3097537579    1.3537857650
     C   -11.5155705323   -0.2977757507    0.4110778981
     C   -11.9945391821   -1.0804601682   -0.6584733396
     C   -11.0856334833   -1.6817164161   -1.5516129326
     C    -9.6678166021   -1.5020942397   -1.3662220887
     C    -8.7751419556   -2.1336528373   -2.2861160372
     C    -9.2432561456   -2.8819310295   -3.3300479277
     C   -10.6409575061   -3.0456959169   -3.5235112749
     C   -11.5296908395   -2.4646774947   -2.6621848646
     C   -13.4610273803   -1.2728221913   -0.8408261704
     C   -14.2554191079   -0.2454132004   -1.3635625214
     C   -15.6275019751   -0.4229718991   -1.5262207712
     C   -16.2247974774   -1.6297469324   -1.1663252327
     C   -15.4426827124   -2.6591413426   -0.6456790243
     C   -14.0703403717   -2.4820273875   -0.4849181433
    Si     5.3312676301   -0.3224944893    0.2905785587
     C     5.6508661275   -1.2693402209   -1.3110396228
     C     6.0185693511   -0.6054593316   -2.4916778352
     C     6.2072308197   -1.3026233215   -3.6837927766
     C     6.0312190215   -2.6846797403   -3.7181557220
     C     5.6688803819   -3.3652887622   -2.5568473994
     C     5.4840078880   -2.6634230220   -1.3672892290
     C     6.2344999247    1.3361785938    0.2453884856
     C     7.4928480173    1.5029297829    0.8450130503
     C     8.1735781942    2.7167496881    0.7706844893
     C     7.6069240187    3.7941313721    0.0925250145
     C     6.3566955501    3.6531998692   -0.5075762075
     C     5.6797513522    2.4376731149   -0.4282957382
     C     5.9719389177   -1.3523807594    1.7368693858
     C     7.1840594748   -2.0555695740    1.6296496455
     C     7.6949533232   -2.7826026957    2.7030845447
     C     6.9977249003   -2.8261841692    3.9092203640
     C     5.7907130681   -2.1409655094    4.0355391763
     C     5.2860897055   -1.4123731170    2.9596195662
     H     0.8909204442   -1.4833412281   -2.6576247401
     H     0.0147515103    0.0488154517   -2.4479957193
     H    -0.8826871315   -1.4704029777   -2.6638867420
     H     0.8683232606   -3.2320679656   -0.8098112003
     H    -0.9044879466   -3.2168977675   -0.8176220915
     H    -0.0218737799   -2.9318655011    0.6988503650
     H     2.8657804207   -1.5410322579   -0.9098619133
     H     3.7394543685    1.6049859005    1.9064046286
     H     1.3326940818    1.9949240513    2.2589370804
     H    -2.8837593651   -1.4887425138   -0.9272227207
     H    -3.7226387181    1.6439151455    1.8938426304
     H    -1.2994762639    2.0095823432    2.2586313049
     H    -3.8502718714   -1.8603797377    2.0509908608
     H    -5.0381243236   -3.6249849694    3.2788017389
     H    -7.4847141224   -3.9753953439    2.9242094919
     H    -8.7250278242   -2.5466843587    1.3567685093
     H    -3.9055187763    1.8411734879   -1.2517690958
     H    -5.1503413998    3.2758040449   -2.8096824725
     H    -7.6096994133    2.9677636811   -3.1111803631
     H    -8.7996703557    1.2169904069   -1.8644628580
     H    -8.5820218633    0.8589656078    1.8001433979
     H   -10.1692327876    1.8859345490    3.3683799649
     H   -12.6236415843    1.5193202794    3.0927465537
     H   -13.4700018887    0.1553676069    1.2368395564
     H    -7.7066498765   -2.0062631008   -2.1418547119
     H    -8.5458320630   -3.3517492934   -4.0183931770
     H   -11.0026524073   -3.6349911434   -4.3618552907
     H   -12.5966499762   -2.5908451894   -2.8154755743
     H   -13.7906731968    0.6968393750   -1.6432791984
     H   -16.2305018687    0.3838484942   -1.9347593184
     H   -17.2954927008   -1.7677350847   -1.2918081616
     H   -15.9011206005   -3.6028309931   -0.3614848214
     H   -13.4611707958   -3.2851874092   -0.0776050062
     H     6.1649817502    0.4727027221   -2.4806417778
     H     6.4953006262   -0.7673836666   -4.5852462144
     H     6.1790801041   -3.2306125903   -4.6465892712
     H     5.5349620471   -4.4440652023   -2.5762530705
     H     5.2145509518   -3.2129579475   -0.4672913229
     H     7.9487870509    0.6749450327    1.3838375384
     H     9.1458379557    2.8221105246    1.2457482550
     H     8.1357427248    4.7421937435    0.0347346983
     H     5.9071845980    4.4911955763   -1.0346197380
     H     4.6999068242    2.3492164108   -0.8937036788
     H     7.7366200609   -2.0433175313    0.6919194789
     H     8.6352357494   -3.3180721430    2.5969443644
     H     7.3920661833   -3.3957899525    4.7470275128
     H     5.2403797825   -2.1756610041    4.9725234487
     H     4.3415262021   -0.8847755250    3.0753431583
