127
-3.3137184883528589e+03 frame 131   xyz file generated by TeraChem
     C     0.3640681940   -0.9638755120   -0.7100295226
     C     0.0285713374   -0.2583353708    0.6126463262
     C     0.1245577532   -1.2550799764    1.7772545653
     C     0.9228748990    0.9495124586    0.8393183004
     C     2.3009790944    0.9904627772    0.9909229543
     C     2.9548189190    2.2181683028    1.2036528435
     C     2.1786447787    3.3917001694    1.2455948840
     C     0.7937460526    3.3628401355    1.0917831128
     C     0.1680812691    2.1338058181    0.8914568565
     C    -1.2430540495    1.7893130921    0.7155182562
     C    -1.3417307189    0.3963991784    0.5585136268
     C    -2.5803711815   -0.2054301537    0.3946894192
     C    -3.7408394216    0.5833394729    0.3867679532
     C    -3.6276965213    1.9743238858    0.5342865221
     C    -2.3871767647    2.5849943752    0.6991221770
     C    -5.0832270973   -0.0485672724    0.2501949303
     C    -5.6291791927   -0.7754477346    1.3283164329
     C    -4.9343383091   -0.9163323539    2.5700894378
     C    -5.4711224616   -1.6202512160    3.6119490609
     C    -6.7471558283   -2.2302279869    3.4832915499
     C    -7.4533481222   -2.1088060847    2.3192353019
     C    -6.9321929671   -1.3792295209    1.2056532532
     C    -7.6647528886   -1.2343635259    0.0125353524
     C    -7.1208721484   -0.5103333274   -1.0649267581
     C    -5.8133519278    0.0848476459   -0.9478483684
     C    -5.2861332653    0.7864128655   -2.0765046965
     C    -6.0015281927    0.9123275126   -3.2348122807
     C    -7.2970914115    0.3402824992   -3.3431742367
     C    -7.8350280276   -0.3495190018   -2.2928331057
     C    -9.0224365806   -1.8392349832   -0.1061716595
     C   -10.1584888614   -1.1124385033    0.2643792983
     C   -11.4275767796   -1.6751387719    0.1549914787
     C   -11.6084135446   -2.9804700358   -0.3256297097
     C   -10.4593057721   -3.7033711213   -0.6865770477
     C    -9.1883107938   -3.1439178632   -0.5836416354
    Si   -13.3306719489   -3.7269905003   -0.5311352686
     C   -13.8597614328   -3.6314675314   -2.3399862965
     C   -15.2163120585   -3.7044472226   -2.7000167265
     C   -15.6106533069   -3.6825372659   -4.0363283965
     C   -14.6529549158   -3.5818043951   -5.0440350093
     C   -13.3023856230   -3.5037442174   -4.7094559759
     C   -12.9133911399   -3.5285237062   -3.3714569160
     C   -13.2707424384   -5.5303426354    0.0226911898
     C   -12.4907776718   -5.9187847235    1.1250007961
     C   -12.4751349970   -7.2396872728    1.5689757690
     C   -13.2384849803   -8.2041641054    0.9133922655
     C   -14.0151713920   -7.8417737046   -0.1855614876
     C   -14.0288434865   -6.5188995811   -0.6239354514
     C   -14.5665472425   -2.7696605328    0.5245431550
     C   -15.1078168195   -1.5549409338    0.0706101724
     C   -15.9817555587   -0.8125553134    0.8621424484
     C   -16.3383458524   -1.2753248282    2.1276470098
     C   -15.8180142582   -2.4807149227    2.5954471288
     C   -14.9417631572   -3.2176344069    1.8006096868
    Si     4.8144077956    2.2720908819    1.5151552364
     C     5.6337797855    0.7830787182    0.6926058237
     C     6.1638940339    0.8712240173   -0.6043275729
     C     6.7176837952   -0.2406429671   -1.2358154881
     C     6.7533662332   -1.4696039751   -0.5794620879
     C     6.2353995272   -1.5800999892    0.7097620089
     C     5.6843655782   -0.4641491856    1.3373156473
     C     5.5247966344    3.8672674401    0.7989000939
     C     6.5808575724    4.5404544040    1.4332863641
     C     7.1409733359    5.6903944692    0.8799907058
     C     6.6521025125    6.1940447551   -0.3239374350
     C     5.6019320554    5.5443759918   -0.9700270543
     C     5.0456081294    4.3945984009   -0.4123931734
     C     5.1356447829    2.1997711898    3.3743992015
     C     6.3885290921    1.8155341668    3.8820246319
     C     6.6396569942    1.8032462301    5.2527540608
     C     5.6368241641    2.1718896871    6.1481920120
     C     4.3852860611    2.5510237152    5.6668644285
     C     4.1403035100    2.5632225021    4.2949351092
     H     1.3807305992   -1.3716414123   -0.6778125034
     H     0.2970853155   -0.2706386348   -1.5549671965
     H    -0.3295904361   -1.7936148241   -0.8862352818
     H     1.1371199328   -1.6689501014    1.8436524173
     H    -0.5727555692   -2.0865303693    1.6253238424
     H    -0.1143234575   -0.7718339004    2.7303856194
     H     2.8783568274    0.0683636962    0.9453490287
     H     2.6662259329    4.3523262725    1.3981885792
     H     0.2181344788    4.2846687179    1.1298442527
     H    -2.6658645499   -1.2839813038    0.2792942436
     H    -4.5304033588    2.5799595446    0.5296613765
     H    -2.3217434430    3.6634298498    0.8211713783
     H    -3.9620119037   -0.4468247818    2.6761514458
     H    -4.9228679535   -1.7117409314    4.5457842489
     H    -7.1632419424   -2.7896570320    4.3169084842
     H    -8.4319613541   -2.5694236745    2.2264535184
     H    -4.2943153601    1.2206261498   -2.0014381185
     H    -5.5780689948    1.4488910113   -4.0796838952
     H    -7.8576720522    0.4487989406   -4.2678170690
     H    -8.8218447240   -0.7931992139   -2.3792133695
     H   -10.0441650104   -0.0997770632    0.6435217994
     H   -12.2902470362   -1.0844995597    0.4561265858
     H   -10.5511486026   -4.7256426329   -1.0488117288
     H    -8.3139451169   -3.7233052114   -0.8701374130
     H   -15.9789829422   -3.7687787276   -1.9261430717
     H   -16.6661535376   -3.7394323186   -4.2905618259
     H   -14.9585042489   -3.5606257190   -6.0870999095
     H   -12.5512266586   -3.4196245663   -5.4909310885
     H   -11.8551007104   -3.4605006715   -3.1281429625
     H   -11.8781212054   -5.1825276134    1.6419398413
     H   -11.8630638278   -7.5169637682    2.4236862803
     H   -13.2249768748   -9.2359018635    1.2557372976
     H   -14.6081363214   -8.5909560059   -0.7043773440
     H   -14.6363168071   -6.2557494486   -1.4875433110
     H   -14.8502590827   -1.1853204774   -0.9201342360
     H   -16.3877345016    0.1246076951    0.4894530838
     H   -17.0229896220   -0.7000330231    2.7458089639
     H   -16.0972330396   -2.8487710988    3.5796022983
     H   -14.5478137522   -4.1582162125    2.1802769740
     H     6.1484685272    1.8238247838   -1.1301790659
     H     7.1249819838   -0.1469905013   -2.2394941167
     H     7.1861607814   -2.3380279319   -1.0697570715
     H     6.2641026545   -2.5350598882    1.2286554251
     H     5.2950997041   -0.5674012165    2.3483257887
     H     6.9706613421    4.1647950930    2.3771227747
     H     7.9568716892    6.1954632143    1.3910512468
     H     7.0857975011    7.0924949979   -0.7557978784
     H     5.2135938508    5.9341179076   -1.9076997716
     H     4.2209733575    3.9060546941   -0.9280368213
     H     7.1801960718    1.5129544413    3.1990490747
     H     7.6168191268    1.5021383195    5.6222833671
     H     5.8297099184    2.1600708495    7.2180033072
     H     3.5972890419    2.8340593643    6.3604322841
     H     3.1555845044    2.8560891369    3.9365510445
