32
-8.2183803279196309e+02 frame 39   xyz file generated by TeraChem
     C     0.7535498781    1.8867860824   -0.3997668491
     C     2.1788942326    2.4056581133   -0.3341186520
     N     3.0997457596    1.3870543863   -0.7931626571
     C     4.4374010285    1.5283420143   -0.8611387404
     C     5.0484460335    2.7493788148   -0.4686006463
     C     6.4145835845    2.9164081703   -0.5336129086
     C     7.2451746472    1.8859846639   -0.9880500960
     C     6.6839891735    0.6808186031   -1.3762802984
     C     5.2820566310    0.4676125126   -1.3256556909
     C     4.7190381488   -0.8122773341   -1.7404666191
     O     3.5023607684   -1.0516410761   -1.7175040481
     C     5.6452096626   -1.8775131034   -2.2119961756
     C     5.1156178825   -3.1075876368   -2.6075626762
     C     5.9561964708   -4.1198920547   -3.0561686473
     C     7.3363261114   -3.9133665717   -3.1142181080
     C     7.8713638057   -2.6931868333   -2.7204789949
     C     7.0314949095   -1.6730862620   -2.2682883178
     C     7.6152057350   -0.3801511624   -1.8489162370
     O     8.8256302462   -0.1912936848   -1.8895838001
     H     0.0579426822    2.6542339489   -0.0484785599
     H     0.6308946655    0.9994198773    0.2307759194
     H     0.4801987271    1.6212457669   -1.4267559757
     H     2.4240157356    2.6977090978    0.6969921924
     H     2.2783768676    3.3087324586   -0.9530312473
     H     2.7418415948    0.4838626100   -1.0910693860
     H     4.4252277077    3.5628645990   -0.1136874410
     H     6.8489380788    3.8641307766   -0.2264919976
     H     8.3209454658    2.0102631291   -1.0438043609
     H     4.0415320144   -3.2540438087   -2.5562012837
     H     5.5367089401   -5.0741883548   -3.3625385968
     H     7.9910971159   -4.7057708749   -3.4657823516
     H     8.9407467142   -2.5096195181   -2.7562943491
