35
-7.6610496060230321e+02 frame 24   xyz file generated by TeraChem
     C     1.1736629723    0.3024008266    0.2713893319
     C     2.5026867232   -0.3099127809   -0.1669647511
     C     2.4708899030   -1.8362637911   -0.0655114686
     C     3.7171898201   -2.4670402600   -0.6692809492
     C     3.7611176265   -2.1706955648   -2.1632489739
     C     3.5869342574   -0.7043871165   -2.4681966886
     C     2.9453808250    0.1882034924   -1.5336667697
     N     2.7583538985    1.4668104510   -1.7701863705
     C     3.1796328358    2.0060979932   -2.9497239796
     N     2.9523052546    3.3133660202   -3.1128389499
     C     3.3569741845    3.8927947532   -4.2542987116
     C     3.1190938358    5.2880433353   -4.4306422931
     C     3.5148895764    5.9238455747   -5.5763689676
     C     4.1708888453    5.2111747387   -6.6190265128
     C     4.4172248770    3.8718578495   -6.4901792051
     C     4.0214070603    3.1755302431   -5.3116286810
     C     4.2494416360    1.8118261570   -5.1232817022
     C     3.8342524636    1.2018664662   -3.9414936954
     C     4.0233453592   -0.1739723838   -3.6513770648
     H     0.9282614887   -0.0290347772    1.2863532756
     H     0.3636769206   -0.0175999888   -0.3949923445
     H     1.2144888580    1.3938678877    0.2590865505
     H     3.2805568747    0.0438463346    0.5299329408
     H     1.5811872728   -2.2201220548   -0.5869914395
     H     2.3598641830   -2.1136189382    0.9894215390
     H     4.6124531488   -2.0604410171   -0.1788093667
     H     3.7247941518   -3.5505815936   -0.5060630584
     H     2.9504344092   -2.7285630288   -2.6552277721
     H     4.6945523504   -2.5264665100   -2.6148763001
     H     2.6174546999    5.8216462866   -3.6282583026
     H     3.3281767834    6.9876005194   -5.6975826720
     H     4.4744005872    5.7398364361   -7.5182567837
     H     4.9180289639    3.3160356395   -7.2794229046
     H     4.7489390769    1.2272834438   -5.8938690641
     H     4.5228978997   -0.8036651580   -4.3861084926
