36
-8.7833737218938791e+02 frame 57   xyz file generated by TeraChem
     C     1.9954816867   -2.0565418483   -1.1311437402
     C     2.0305813509   -0.5511839022   -0.9893066953
     O     2.8060523366    0.0526121341   -2.0465529293
     C     4.1242144822    0.1385119878   -1.8515979039
     O     4.6939409552   -0.2822205006   -0.8656657627
     C     4.8184787975    0.7945428952   -3.0031734054
     C     4.3403118415    2.0572230145   -3.5103272571
     C     3.1608298004    2.7773559659   -2.9184104403
     C     5.0182924384    2.6396913465   -4.5387447312
     N     6.1099455691    2.0235796530   -5.0836012501
     C     6.5973644397    0.8045518352   -4.6177762247
     C     5.9333503263    0.1715720448   -3.5286795431
     C     6.5098942393   -1.1283602798   -3.0560378068
     N     7.6676955720    0.3899960420   -5.2815053034
     C     7.8970571980    1.3675136372   -6.2142707905
     C     6.9419325020    2.4070823206   -6.1197630365
     C     6.9492308648    3.5257775473   -6.9526425559
     C     7.9569770571    3.5850167239   -7.9035988590
     C     8.9205954433    2.5605445273   -8.0171259657
     C     8.9059430853    1.4524450965   -7.1872545998
     H     1.3427097108   -2.4810076616   -0.3610470075
     H     2.9950838223   -2.4834606319   -1.0086522820
     H     1.6042188398   -2.3455088827   -2.1116162665
     H     2.4505635852   -0.2458283230   -0.0279340756
     H     1.0364163574   -0.1139032089   -1.1028098340
     H     3.2511045599    2.8649965711   -1.8299947831
     H     2.2232723328    2.2526787359   -3.1235614967
     H     3.0890833406    3.7868364463   -3.3328185705
     H     4.7419378821    3.5983373636   -4.9630871111
     H     6.9369856956   -1.6717448587   -3.9029173594
     H     5.7694003731   -1.7555243565   -2.5581977598
     H     7.3235333257   -0.9467908868   -2.3432953328
     H     6.2071629984    4.3141852897   -6.8647688032
     H     8.0054767243    4.4372281136   -8.5753505585
     H     9.6928350740    2.6477177326   -8.7768147212
     H     9.6488282732    0.6649645799   -7.2757907192
