43
-1.0698518719550459e+03 frame 39   xyz file generated by TeraChem
     C     2.2450292231   -0.3262205799   -0.5129007653
     C     3.6311827054   -0.0075893895   -1.0280180832
     O     4.0617136993    1.2997467376   -0.5898169909
     C     4.6133913590    1.3736267856    0.6195288610
     O     4.7428005954    0.4368779481    1.3803606215
     C     5.0284916620    2.7744827132    0.9570949055
     C     4.3957877525    3.3930338406    2.0890572915
     C     3.3561745668    2.6769709588    2.9023767208
     C     4.7401630097    4.6745443344    2.3973497279
     N     5.6785045445    5.3332957677    1.6551137162
     C     6.3306363109    4.7602516713    0.5601650668
     C     5.9808999597    3.4243863644    0.1967233363
     C     6.6818410686    2.7862446260   -0.9413694504
     C     6.7320175646    3.4127880588   -2.1929476765
     C     7.3759617059    2.7990076039   -3.2621581322
     C     7.9884735036    1.5572398596   -3.0953179602
     C     7.9539548357    0.9323863237   -1.8507740645
     C     7.3066255887    1.5431492331   -0.7798767954
     N     7.2145042704    5.5769119652    0.0073189695
     C     7.1425140903    6.7264274690    0.7513077401
     C     6.1936858785    6.6095099142    1.7926357466
     C     5.9285734892    7.6328461639    2.7018905411
     C     6.6493458151    8.8066473182    2.5412182312
     C     7.5997081003    8.9485286611    1.5080550036
     C     7.8577397513    7.9264476191    0.6102691884
     H     1.9168454819   -1.2883062704   -0.9202550900
     H     1.5294542048    0.4412306300   -0.8241016448
     H     2.2406714047   -0.3948689640    0.5786522035
     H     3.6499220127    0.0577337923   -2.1176445115
     H     4.3656616460   -0.7466678479   -0.6987241864
     H     3.7805399670    1.8046354044    3.4087796056
     H     2.5354369580    2.3177551709    2.2704909354
     H     2.9329002242    3.3447453686    3.6575482998
     H     4.2995837191    5.2257469714    3.2205694187
     H     6.2576548274    4.3801324526   -2.3250085103
     H     7.3992586417    3.2921927998   -4.2303279366
     H     8.4943939521    1.0816897318   -3.9313823319
     H     8.4375260554   -0.0304270316   -1.7086533783
     H     7.2952078050    1.0586418828    0.1930572398
     H     5.1965464417    7.5227351385    3.4969596555
     H     6.4788194648    9.6338574702    3.2241914201
     H     8.1416089985    9.8862830589    1.4186368437
     H     8.5902927644    8.0377952863   -0.1839412415
