230
-4.1842787992741542e+03 frame 71   xyz file generated by TeraChem
     C     0.5537614505   -1.8660828783   -0.7529197585
     C     0.1040382023   -2.5869787345    0.5176410878
     C     1.2498075375   -2.7668991581    1.5240662757
     C     1.9312935992   -1.4773234658    1.9821124669
     C     2.8906088571   -1.6449483770    3.1904365029
     C     3.5961869367   -0.3005282758    3.4574226292
     C     4.5610589266   -0.2969609964    4.6394880356
     C     5.3288894661    1.0174719632    4.8217825867
     C     4.4157719682    2.1762006537    5.2173835490
     C     6.4425606710    0.8413956167    5.8530523983
     C     2.1182084107   -2.1636009335    4.3912172218
     C     1.1111340465   -1.5304398631    5.1044383593
     C     0.4560443534   -2.2111442767    6.1467371892
     C     0.8515866833   -3.5310859123    6.4377406303
     C     1.8823709228   -4.1591561441    5.7483300362
     C     2.5248877786   -3.4664767905    4.7239168079
     C     3.6258691292   -3.8489084912    3.8385838730
     C     3.8652463891   -2.7854043302    2.9501319630
     C     4.8689824532   -2.8841247596    1.9958510503
     C     5.6349499840   -4.0513608984    1.9348132669
     C     5.3952244244   -5.1071344339    2.8178310081
     C     4.3880974025   -5.0150242321    3.7775010325
     C    -0.5692292336   -1.5788947106    7.0145038566
     C    -0.4276715165   -1.7792018101    8.3896707838
     C    -1.2998390331   -1.2531110810    9.3387468431
     C    -0.9883714872   -1.4980521217   10.7679115346
     C    -0.8616789516   -0.4397980567   11.6840822301
     C    -0.4727588810   -0.6663981294   13.0013486151
     C    -0.2039999967   -1.9710993684   13.4122821297
     C    -0.3346876076   -3.0399322409   12.5095914529
     C    -0.7214122715   -2.8082657577   11.1996887393
     C     0.0150821454   -4.3619479465   13.1715797329
     C     1.1975634485   -5.0585997350   12.4590809422
     C     2.4639662228   -4.2207009976   12.3147294428
     C     3.6587653128   -4.9810831523   11.7266782135
     C     3.3911339388   -5.4826814454   10.3077489445
     C     4.9061670423   -4.0995692203   11.7516149715
     C    -1.1872882104   -5.3358064589   13.1801745719
     C    -2.4346050833   -4.8346189729   13.9020725306
     C    -3.6685917577   -5.7254761014   13.7173440857
     C    -3.4492986953   -7.1455405171   14.2372253255
     C    -4.8821226346   -5.0928547827   14.3954293665
     C     0.3790446247   -3.9013323155   14.5730052426
     C     0.2402480201   -2.5074869589   14.7001158689
     C     0.5227875007   -1.8689684445   15.9070307838
     C     0.9472226903   -2.6390434887   16.9889446624
     C     1.0857124181   -4.0236850586   16.8651531798
     C     0.8014601124   -4.6624322541   15.6550510689
     C    -2.4130218778   -0.5026129509    8.8991116241
     C    -2.5853781877   -0.2563830035    7.5012479706
     C    -1.6560570116   -0.7923389002    6.5534959819
     C    -1.8832615011   -0.5170454586    5.1672505120
     C    -2.9026673219    0.2794273346    4.7476322327
     C    -3.8547287197    0.8313414527    5.6614667944
     C    -3.6986774931    0.5301667955    7.0520059745
     C    -4.6480616888    1.0172039388    8.0025795160
     C    -4.4582558919    0.7177396894    9.3869180007
     C    -3.3923622856   -0.0054228644    9.8141506523
     C    -5.7342427444    1.8020152022    7.5588676972
     C    -5.8234983256    2.1275366294    6.2093391362
     C    -4.9236138389    1.6635154189    5.2457197057
     C    -5.1975505950    2.0851060285    3.8472377893
     C    -5.5059577769    3.4395300966    3.6185237996
     C    -5.9551747778    3.8904959087    2.3831366131
     C    -6.0937963225    2.9730204848    1.3442369319
     C    -5.7343938968    1.6273643644    1.5335492437
     C    -5.2974143427    1.1811136453    2.7739681322
     C    -5.9448559009    0.8298535178    0.2545960874
     C    -6.8474438751   -0.4033686079    0.4650296660
     C    -8.1981303710   -0.1125852363    1.1123403613
     C    -9.1602767861   -1.3059987120    1.1320453572
     C    -8.5941951880   -2.4999344934    1.8993544284
     C   -10.5088408866   -0.8867753943    1.7137677887
     C    -4.5948134947    0.3618832254   -0.3509517530
     C    -3.5992948140    1.4767471031   -0.6623978175
     C    -2.2855381370    1.0113547838   -1.3022222107
     C    -2.4995440312    0.3559164311   -2.6659973997
     C    -1.3206137231    2.1888444693   -1.4262997832
     C    -6.5782438549    1.8770417038   -0.6465737680
     C    -6.6204877422    3.1300120423   -0.0117855978
     C    -7.1253244157    4.2495019002   -0.6721722327
     C    -7.5939005229    4.1017739809   -1.9767636058
     C    -7.5575685976    2.8559438952   -2.6081884086
     C    -7.0464256290    1.7362900871   -1.9462445479
     C    -6.8128877998    2.2767361340    8.4610005349
     C    -7.6146681581    1.3638381991    9.1656148936
     C    -8.6979862910    1.7931382908    9.9271422957
     C    -8.9788860763    3.1568286579    9.9917476895
     C    -8.1703751682    4.0829733997    9.3113421090
     C    -7.1001942228    3.6485585540    8.5447963420
     C    -8.6513493833    5.5041650945    9.5471761948
     C    -8.9872686341    6.2297936085    8.2249090622
     C    -9.9993965665    5.5305991010    7.3231805786
     C   -10.3197286778    6.2914027688    6.0303843659
     C    -9.1084239367    6.4021678977    5.1048241256
     C   -11.4845083825    5.6245696809    5.3014096484
     C    -7.5891132462    6.3452102912   10.2980712745
     C    -7.1438648317    5.7928123683   11.6491404713
     C    -5.9538005989    6.5359996385   12.2663970876
     C    -6.2753663080    7.9975435636   12.5746866526
     C    -5.4756862903    5.8198341076   13.5283629144
     C    -9.8765861729    5.2617036876   10.4119671868
     C   -10.0457024197    3.8907089832   10.6754690336
     C   -11.1036421119    3.4397561283   11.4636464265
     C   -11.9951820366    4.3753391963   11.9865671148
     C   -11.8298985311    5.7378312159   11.7255251280
     C   -10.7678771107    6.1885109866   10.9368935426
     C    -1.1148141468   -1.9100981497    1.1419338597
     H     1.4281087588   -2.3572080557   -1.1970619669
     H     0.8244414765   -0.8234671973   -0.5453878366
     H    -0.2457793596   -1.8569979863   -1.5031654970
     H    -0.2046850887   -3.6021502422    0.2267365240
     H     2.0053672129   -3.4282211148    1.0805314664
     H     0.8505068907   -3.2982470912    2.3984949324
     H     1.1809331049   -0.7270335487    2.2647242218
     H     2.5066465894   -1.0443820983    1.1528304430
     H     2.8200621348    0.4639401037    3.5961034503
     H     4.1413668424   -0.0190315863    2.5450545376
     H     5.2887482846   -1.1094576439    4.5063941662
     H     4.0149575026   -0.5209290163    5.5673678123
     H     5.7988291987    1.2657847988    3.8571750863
     H     3.9186582559    1.9645479041    6.1734348933
     H     3.6365259001    2.3650934842    4.4708415410
     H     4.9897333469    3.1024748191    5.3387767015
     H     6.0254420127    0.5787749946    6.8341599454
     H     7.0224306884    1.7640864449    5.9742858618
     H     7.1336102717    0.0427674878    5.5588140227
     H     0.8493192139   -0.4994018603    4.8798444464
     H     0.3333361124   -4.0730639067    7.2243290234
     H     2.1701944215   -5.1755326422    6.0062193445
     H     5.0616756022   -2.0678199300    1.3028224799
     H     6.4250270782   -4.1386980337    1.1933375099
     H     6.0005678285   -6.0078644553    2.7566618877
     H     4.2057274992   -5.8379144880    4.4646831454
     H     0.4380251510   -2.3309781109    8.7449812215
     H    -1.0410586511    0.5780317083   11.3477583519
     H    -0.3661504800    0.1699575930   13.6880237821
     H    -0.8197913447   -3.6324842187   10.4960809144
     H     0.8433861689   -5.3795142870   11.4706308218
     H     1.4313283262   -5.9783754663   13.0148255759
     H     2.7510021144   -3.8334060621   13.3020163464
     H     2.2604808299   -3.3431961665   11.6847057232
     H     3.8460346701   -5.8562749681   12.3679057570
     H     3.1505287575   -4.6438920081    9.6405196934
     H     2.5569027740   -6.1913866569   10.2700261071
     H     4.2740888240   -5.9894550920    9.9003866202
     H     4.7635085692   -3.2139752955   11.1188943380
     H     5.7834868785   -4.6400497290   11.3770352424
     H     5.1298750793   -3.7523673828   12.7673581473
     H    -0.8481146891   -6.2781711862   13.6296561114
     H    -1.4383289856   -5.5671091361   12.1347049364
     H    -2.6804253888   -3.8256281269   13.5436721216
     H    -2.2236572898   -4.7387987387   14.9767028582
     H    -3.8769463693   -5.7872279435   12.6376671788
     H    -3.1915808629   -7.1301270675   15.3046412260
     H    -2.6425954080   -7.6603374227   13.7044673367
     H    -4.3586286741   -7.7473256797   14.1222507156
     H    -4.7262368120   -5.0229812794   15.4800154870
     H    -5.7871539922   -5.6886119227   14.2273831253
     H    -5.0692824181   -4.0799395033   14.0191482560
     H     0.4171177671   -0.7912268911   16.0062795597
     H     1.1727596658   -2.1580807712   17.9372563702
     H     1.4177632621   -4.6096313212   17.7183665777
     H     0.9111193017   -5.7414502910   15.5684295886
     H    -1.2182328865   -0.9502977243    4.4292036357
     H    -3.0048009909    0.4945566900    3.6893513069
     H    -5.1817897134    1.0892984255   10.1051799954
     H    -3.2772902426   -0.2217346843   10.8708441673
     H    -6.6706912177    2.7240611278    5.8821445575
     H    -5.4061286285    4.1453616316    4.4389630161
     H    -6.2094259190    4.9386298674    2.2449382757
     H    -5.0904450046    0.1253244734    2.9335998497
     H    -6.2878275860   -1.1287038550    1.0700913160
     H    -7.0045561030   -0.8800653004   -0.5134744864
     H    -8.6826621735    0.7150241920    0.5761114806
     H    -8.0427003789    0.2347896692    2.1436128914
     H    -9.3236133844   -1.6197707874    0.0890465331
     H    -8.3661251921   -2.2202566614    2.9365830210
     H    -7.6734525388   -2.8809128478    1.4449585047
     H    -9.3167303154   -3.3241362276    1.9271610919
     H   -10.3988621384   -0.5775065677    2.7614678642
     H   -11.2290794932   -1.7129584869    1.6845925191
     H   -10.9375510853   -0.0431660549    1.1597510900
     H    -4.8295289393   -0.1980359677   -1.2655750726
     H    -4.1391335981   -0.3574698699    0.3448206933
     H    -3.3668539158    2.0161032694    0.2658891528
     H    -4.0662582895    2.2116248405   -1.3336655246
     H    -1.8263459310    0.2669679294   -0.6361073472
     H    -2.9836781796    1.0565849959   -3.3593410348
     H    -3.1270738499   -0.5391481754   -2.6006352186
     H    -1.5419176816    0.0566155054   -3.1085627452
     H    -1.7336093368    2.9580266812   -2.0921902430
     H    -0.3564433617    1.8716784186   -1.8415538149
     H    -1.1329637259    2.6562131284   -0.4522119978
     H    -7.1580160651    5.2196745577   -0.1820161982
     H    -7.9925208261    4.9627988571   -2.5070249122
     H    -7.9307846118    2.7569803801   -3.6242733337
     H    -7.0164285974    0.7711950771   -2.4473236617
     H    -7.4007161833    0.3009920991    9.0871995533
     H    -9.3187346707    1.0681992185   10.4481187402
     H    -6.4771471234    4.3580570911    8.0038296573
     H    -8.0424655622    6.3779880700    7.6859303822
     H    -9.3569319680    7.2340202471    8.4772368055
     H   -10.9326244279    5.3793768685    7.8827546718
     H    -9.6313626656    4.5291172281    7.0566678536
     H   -10.6310043076    7.3105771626    6.3084750285
     H    -8.7455359578    5.4042961278    4.8225367118
     H    -8.2771696302    6.9405678838    5.5725339814
     H    -9.3690978066    6.9340659477    4.1820356890
     H   -11.2209467864    4.5999892731    5.0074931402
     H   -11.7518981241    6.1732304646    4.3904853605
     H   -12.3755290085    5.5699988028    5.9380815969
     H    -7.9972325394    7.3569403521   10.4205305832
     H    -6.7137540243    6.4438168242    9.6398417958
     H    -6.8705571347    4.7351296758   11.5330615294
     H    -7.9847283406    5.8180261279   12.3569979315
     H    -5.1322016419    6.5152998058   11.5334251069
     H    -7.1220740924    8.0666039623   13.2706698349
     H    -6.5350076098    8.5634165915   11.6734557512
     H    -5.4180803997    8.4954502583   13.0430969407
     H    -6.2603665633    5.8227038532   14.2961970788
     H    -4.5927600860    6.3125858750   13.9521109330
     H    -5.2146537893    4.7755838133   13.3196850245
     H   -11.2358817895    2.3797137701   11.6669856049
     H   -12.8266790678    4.0418537860   12.6020531855
     H   -12.5347687715    6.4543094409   12.1395325284
     H   -10.6467994668    7.2517337082   10.7399903743
     H    -0.9043581061   -0.8686938880    1.4158222468
     H    -1.4400500471   -2.4347593647    2.0489489294
     H    -1.9567369775   -1.8994457147    0.4398069047
