49
-9.6136589927565001e+02 frame 37   xyz file generated by TeraChem
     C     1.5077258505    0.4219066714   -0.2434085435
     C     2.9403243781    0.0097054649    0.0950658847
     C     3.0808064110   -1.4947742589    0.1315593902
     C     2.1229157518   -2.4173701337   -0.0966966415
     C     2.4058149013   -3.8334686122   -0.0254357724
     C     1.4875298376   -4.8358034962   -0.2493036930
     C     0.1204576968   -4.6534907732   -0.5963145199
     C    -0.7630738337   -5.6668663958   -0.8099186648
     C    -2.1506270938   -5.4746195033   -1.1673576369
     C    -2.9940913686   -6.5900322612   -1.3647111301
     N    -4.2746577717   -6.4832049669   -1.6935272797
     C    -4.7498309920   -5.2397564051   -1.8354918707
     C    -3.9325280898   -4.1282845204   -1.6446362685
     N    -2.6484531984   -4.2289285700   -1.3148356844
     C     3.7760069694   -4.1456517580    0.3099506044
     C     4.6943603592   -3.1815148142    0.5257427499
     O     4.3573154715   -1.8624488589    0.4386362644
     C     6.1547149562   -3.3513873781    0.8753082200
     C     7.0086479645   -2.6854535508   -0.2174801219
     C     6.4269150107   -2.6682249683    2.2261778532
     C     6.5282663898   -4.8304952758    0.9736031300
     C     3.8924398537    0.5735824358   -0.9732902018
     C     3.3202679618    0.5795005846    1.4727034456
     H     1.2037038515    0.0508721378   -1.2283669901
     H     1.4443033127    1.5150445799   -0.2609117532
     H     0.7939065547    0.0549392820    0.5023822053
     H     1.1249465626   -2.0731913914   -0.3355992063
     H     1.8419881154   -5.8622605193   -0.1551758765
     H    -0.2603318097   -3.6388739172   -0.7055489451
     H    -0.4307170583   -6.6996492584   -0.7115634543
     H    -2.5948820319   -7.5967785528   -1.2460797643
     H    -5.7974619694   -5.1286755542   -2.1047058657
     H    -4.3340980422   -3.1230060797   -1.7638182919
     H     4.0734371503   -5.1853431909    0.3876064197
     H     6.7704634305   -1.6221364457   -0.3189441613
     H     6.8497944031   -3.1701165200   -1.1873405394
     H     8.0695782061   -2.7752694101    0.0414946995
     H     6.1789807460   -1.6030169884    2.1916035242
     H     7.4890251374   -2.7643445904    2.4778408120
     H     5.8408517209   -3.1347300426    3.0260318338
     H     6.3623354690   -5.3515989438    0.0243862871
     H     5.9555367409   -5.3405020805    1.7561031510
     H     7.5909537247   -4.9159738639    1.2239497147
     H     3.6312956297    0.1958363123   -1.9682452023
     H     4.9329107971    0.3071175961   -0.7638001000
     H     3.8163627089    1.6666014825   -0.9903084826
     H     2.6477784518    0.2022023104    2.2512848894
     H     3.2410428297    1.6720932650    1.4504929668
     H     4.3470670817    0.3163635967    1.7441317344
