49
-1.1861329809972867e+03 frame 56   xyz file generated by TeraChem
     C     0.9971898837    0.8027325854   -2.3561183050
     C     0.3432984599    0.7916076142   -1.1533298406
     C    -1.0621544267    0.8868704249   -0.9947679015
     C    -1.7442108144    0.8714827107    0.2062531679
     C    -1.1271938869    0.7548804350    1.5040040696
     C    -1.8669342635    0.7217633407    2.6367555033
     O    -3.2248211683    0.8319140839    2.6043293061
     C    -3.8683156747    0.9652670998    1.4078479829
     C    -3.1803441710    0.9725173093    0.2420543365
     C    -5.3236638476    1.0597012587    1.5663891183
     C    -5.9309942471    0.6483287285    2.7621408770
     C    -7.3117946764    0.7218335297    2.9125982973
     C    -8.1068518709    1.2083982870    1.8771996555
     C    -7.5098393174    1.6273919345    0.6880468068
     C    -6.1310316642    1.5586461731    0.5328861692
     C    -1.3510606160    0.5981820341    4.0057848170
     C    -2.1381985097    0.9939012262    5.0971449793
     C    -1.6451093358    0.8920525057    6.3939378196
     C    -0.3651903224    0.3912425447    6.6222996515
     C     0.4200408806   -0.0132200759    5.5427970168
     C    -0.0680450058    0.0839224061    4.2457268215
     C     2.4145314627    0.7055363583   -2.4561358383
     C     3.1195292065    0.7064950973   -3.6198583459
     C     4.5605626707    0.6085474354   -3.6865181050
     C     5.2295484788    0.6093303125   -4.9234530691
     C     6.6091317971    0.5137492827   -4.9070569197
     N     7.3196536348    0.4219583200   -3.7734669196
     C     6.5898671983    0.4294004974   -2.6543137447
     N     5.2722073971    0.5154543907   -2.5392517937
     H     0.4202668936    0.8884497128   -3.2777014152
     H     0.9597559791    0.7020743977   -0.2585805278
     H    -1.6590512804    0.9789759491   -1.9016112887
     H    -0.0495268516    0.7009642543    1.5952829740
     H    -3.7248550314    1.0424682253   -0.6932219696
     H    -5.3175578771    0.2614148257    3.5692284221
     H    -7.7674138782    0.3943714128    3.8431561105
     H    -9.1852513281    1.2667058466    1.9966539943
     H    -8.1206456716    2.0198698728   -0.1203139796
     H    -5.6809368411    1.9146581980   -0.3890822377
     H    -3.1328034218    1.3925339201    4.9247764207
     H    -2.2642799308    1.2079497408    7.2291419769
     H     0.0175771846    0.3106561063    7.6360330140
     H     1.4141082724   -0.4178553562    5.7119302525
     H     0.5449485283   -0.2623575736    3.4188755729
     H     2.9751906601    0.6247668698   -1.5245418133
     H     2.5953611305    0.7834086284   -4.5710601944
     H     4.6804510378    0.6820652248   -5.8572284638
     H     7.1759427267    0.5100798779   -5.8369561639
     H     7.1474843513    0.3557574994   -1.7205498957
