48
-1.1850878855106794e+03 frame 83   xyz file generated by TeraChem
     C     2.0727618892    0.0850536008    1.3485098671
     C     3.2368750564    0.0899162221    1.0234903071
     C     4.6252695279    0.0954406500    0.6364036488
     N     5.1939332668   -1.1012336966    0.4778135748
     C     6.4932678569   -1.0993853676    0.1173775058
     C     7.1773824606   -2.3698273279   -0.0731040203
     C     6.5817027491   -3.5676749527    0.1020034782
     C     7.1818667388   -4.8810617057   -0.0664682057
     C     6.4015254617   -6.0204358374    0.1760855153
     C     6.9092231997   -7.3078549899    0.0338607012
     C     8.2379066295   -7.4791510552   -0.3642377713
     C     9.0380673960   -6.3513428299   -0.6126911053
     C     8.5189172312   -5.0808619062   -0.4663109272
     O     8.8417176984   -8.6743769846   -0.5376260007
     C     8.0771525231   -9.8464636025   -0.3093556629
     C     7.1764893628    0.1053629676   -0.0717189067
     C     6.4846212312    1.3047604664    0.1201371440
     N     5.1852953236    1.2965442158    0.4804379757
     C     7.1598117958    2.5803471669   -0.0674965208
     C     6.5559501301    3.7738397251    0.1092348282
     C     7.1475734791    5.0914257444   -0.0568717315
     C     6.3591925258    6.2254106993    0.1849649295
     C     6.8586366825    7.5162756211    0.0446212877
     C     8.1869778692    7.6966665402   -0.3505972643
     C     8.9951028988    6.5743633141   -0.5982257236
     C     8.4840654528    5.3003904156   -0.4538428951
     O     8.7832866037    8.8958938803   -0.5217853176
     C     8.0115203915   10.0629883716   -0.2922294239
     H     1.0416643522    0.0810508062    1.6353683550
     H     8.2211091470   -2.2985862074   -0.3709890559
     H     5.5348060922   -3.5621478813    0.4039467960
     H     5.3662373609   -5.8948863184    0.4852429605
     H     6.2693635190   -8.1608217249    0.2315194714
     H    10.0680499297   -6.5038179358   -0.9219782416
     H     9.1615403722   -4.2281857619   -0.6665527314
     H     8.7459027435  -10.6837333528   -0.5125504689
     H     7.2145118871   -9.8940815621   -0.9840840580
     H     7.7307710903   -9.8982485705    0.7295211789
     H     8.2232406856    0.1093789192   -0.3613004248
     H     8.2041680633    2.5168002416   -0.3649429443
     H     5.5089179268    3.7610610034    0.4104412296
     H     5.3241743441    6.0927087026    0.4919929490
     H     6.2127524694    8.3648890243    0.2414728042
     H    10.0247393625    6.7339190727   -0.9050841498
     H     9.1327501012    4.4520942023   -0.6530542110
     H     8.6758269903   10.9045877710   -0.4920675615
     H     7.6627259300   10.1102582823    0.7460609737
     H     7.1499663538   10.1072795230   -0.9685824277
