38
-1.1167623738812781e+03 frame 46   xyz file generated by TeraChem
     C     4.2643936205    0.2749548586   -0.5716359045
     C     2.9520121892    0.0287666518    0.1588237599
     N     3.0435255547   -1.0444655627    1.1342518573
     C     3.5657458501   -0.9540704064    2.4216125404
     C     4.0635534082    0.1666156694    3.0823438622
     C     4.5201575685   -0.0078441336    4.3859486000
     C     4.4884269605   -1.2578858569    5.0233969001
     C     3.9917568008   -2.3732665982    4.3615179288
     C     3.5284914823   -2.2207179535    3.0539391042
     C     2.9569021385   -3.1237835997    2.0882799348
     C     2.6811617592   -2.3402221936    0.9065555253
     N     2.1612578030   -2.8132265543   -0.1942132524
     C     1.8733119916   -4.1402674151   -0.1642288325
     C     2.1274139254   -4.9277768252    1.0113487049
     N     2.6802748023   -4.4016545578    2.1410642465
     C     1.7940207585   -6.3016201328    1.0313218576
     C     1.2180242981   -6.8935707058   -0.0585900276
     C     0.9665775431   -6.1389736411   -1.2239450850
     C     1.2909194060   -4.7830675954   -1.3059593106
     C     1.0606860525   -4.0572448365   -2.5818460230
     O     1.4165634652   -2.9148685704   -2.8554540800
     N     0.3733536237   -4.7713246780   -3.5234749786
     N     0.1035163623   -6.1173719941   -3.4476857724
     C     0.3067652246   -6.8586638504   -2.3370972466
     O    -0.0458453604   -8.0372534454   -2.2790429350
     H     4.1388079708    1.0884654979   -1.2936130541
     H     4.5782998859   -0.6222704524   -1.1145139618
     H     5.0606586371    0.5565405941    0.1249409473
     H     2.1662475325   -0.2591501943   -0.5443016220
     H     2.6150561499    0.9301279312    0.6806371313
     H     4.0986653733    1.1408256774    2.6047558457
     H     4.9131158414    0.8515670622    4.9225033351
     H     4.8560921900   -1.3499170884    6.0410104981
     H     3.9602948680   -3.3462883523    4.8436622765
     H     2.0032474629   -6.8596770265    1.9394448577
     H     0.9427264325   -7.9424631194   -0.0599389222
     H     0.3712652041   -4.3985002708   -4.4653625701
     H    -0.4870574762   -6.4814469884   -4.1857674322
