64
-1.7314442958959989e+03 frame 159   xyz file generated by TeraChem
     C    -2.3583033514    0.3635713930   -2.1796088115
     C    -1.2040239730    0.3281912757   -1.8140419030
     C     0.1549149504    0.2852026820   -1.3829347387
     C     1.1040992403    1.1753066943   -1.9117845568
     C     2.4262014598    1.1283993519   -1.4986314225
     C     2.8347489807    0.1991989558   -0.5324959839
     C     1.8911971309   -0.6865647462    0.0045174206
     C     0.5724518122   -0.6487940686   -0.4202144880
     N     4.1805599183    0.1558862924   -0.1058824544
     C     4.8882293576    1.3560829797    0.1055257147
     C     4.2579182534    2.4583268086    0.7015068752
     C     4.9506204503    3.6411751703    0.8997493345
     C     6.2995357290    3.7564702611    0.5197551978
     C     6.9279948531    2.6460283397   -0.0717338288
     C     6.2319443071    1.4673789527   -0.2809524683
     C     7.0125357759    4.9674996408    0.7268071950
     C     7.6309307682    6.0003729531    0.8987197258
     C     8.3288738964    7.2226630145    1.1120200535
     C     7.6936418087    8.3200235773    1.7405735033
     C     8.4199242815    9.4660337634    1.9139624185
     C     9.7472707287    9.4476760577    1.4449505287
     N    10.3000801842    8.3918342036    0.8621428355
     N     9.5980630229    7.2792346192    0.6932101382
     O    10.4676867400   10.5590389050    1.6067151130
     C    11.8113586353   10.5495841907    1.1241355029
     C     4.8172697403   -1.0854970285    0.0908425863
     C     4.5713557726   -2.1581600681   -0.7785692989
     C     5.1953291390   -3.3787212702   -0.5823371901
     C     6.0958179859   -3.5632378952    0.4821440665
     C     6.3414114353   -2.4833690593    1.3484653908
     C     5.7071246672   -1.2667785062    1.1601700652
     C     6.7420948093   -4.8138063445    0.6720524677
     C     7.2898243668   -5.8894731865    0.8194815272
     C     7.9433182421   -7.1406708184    1.0040033795
     C     8.9009305773   -7.3177127204    2.0307340315
     C     9.4935204168   -8.5451178542    2.1484386741
     C     9.0905209355   -9.5304775722    1.2270193541
     N     8.1852612878   -9.3164361166    0.2809542572
     N     7.6100811353   -8.1272489127    0.1642885955
     O     9.6610677024  -10.7325602337    1.3270848059
     C     9.2506841166  -11.7330750887    0.3950202972
     H    -3.3774808599    0.3953001185   -2.5028194753
     H     0.7998799622    1.8963217968   -2.6646623536
     H     3.1525719336    1.8118177777   -1.9278965558
     H     2.1967956823   -1.4026762847    0.7612532387
     H    -0.1510397302   -1.3377112253    0.0054079511
     H     3.2211279306    2.3808392033    1.0140669042
     H     4.4528235844    4.4856895834    1.3668808971
     H     7.9659736611    2.7215556106   -0.3815115893
     H     6.7272965077    0.6251823402   -0.7542652345
     H     6.6626267301    8.2401939846    2.0693760338
     H     8.0159538694   10.3560234734    2.3850850466
     H    12.2020170390   11.5420466761    1.3492473035
     H    11.8359468757   10.3654107063    0.0466265352
     H    12.4017371552    9.7832533635    1.6337815056
     H     3.8922203687   -2.0281768721   -1.6155233224
     H     5.0016236076   -4.1994874555   -1.2663713506
     H     7.0249485892   -2.6112714475    2.1825033574
     H     5.8960246628   -0.4477733266    1.8473140586
     H     9.1484838207   -6.4966093208    2.6955852282
     H    10.2387152156   -8.7715455738    2.9038339909
     H     9.8362342518  -12.6167922808    0.6491944392
     H     9.4607448687  -11.4187450002   -0.6308954528
     H     8.1822554712  -11.9426462262    0.4954907266
