99
-2.2071810652739241e+03 frame 54   xyz file generated by TeraChem
    Br     0.9385135583    0.6264558682    0.6161986278
     C     2.8879378793    0.5521101547    0.4473072519
     C     3.5022498423   -0.6962544185    0.4123900987
     C     4.8884820923   -0.7607265263    0.2900287221
     C     5.6190280761    0.4230426813    0.2060301384
     C     4.9732560643    1.6703170967    0.2428168238
     C     3.5918986001    1.7491379279    0.3654528157
     C     5.9688355754    2.8138555062    0.1227810773
     C     5.7088893711    3.6375085329   -1.1473526570
     C     5.9369270055    3.7261910809    1.3573772001
     C     7.2796922483    2.0498977152    0.0289758470
     C     7.0569516569    0.6508616959    0.0727618857
     C     8.1085833145   -0.2352956325   -0.0056381918
     C     9.4326435368    0.2398228997   -0.1273048471
     C     9.6633627113    1.6642038300   -0.1646301258
     C     8.5544010315    2.5418241999   -0.0849880759
     C    11.0077014335    2.2074366826   -0.2754244937
     C    11.2572192080    3.6018323519   -0.2764897354
     C    11.4730157254    4.8010633618   -0.2753067161
     C    11.7188266878    6.2003298941   -0.2722253399
     C    13.0404415676    6.6893933662   -0.2979280311
     C    13.2940035266    8.0548865115   -0.2935306723
     C    12.2184721601    8.9436794277   -0.2646665093
     C    10.8950853114    8.4648532193   -0.2405854186
     C    10.6384179064    7.1064956696   -0.2430762271
     C     9.9002079792    9.6129351817   -0.2182532505
     C     9.0005495674    9.5968248539   -1.4633257119
     C     9.0353040213    9.5850982901    1.0507123940
     C    10.8343564872   10.8109734775   -0.2273105362
     C    12.1801282106   10.4051244098   -0.2551284651
     C    13.2099015937   11.3459909411   -0.2693863884
     C    12.8785099818   12.6995650306   -0.2558773381
     C    11.5413327059   13.1044904195   -0.2285922920
     C    10.5110608718   12.1612099151   -0.2140167808
     C    11.9754659171    1.2417235909   -0.3721957487
     C    11.7586050378   -0.0989076756   -0.3444674900
     C    10.5374772766   -0.7051445578   -0.2062758317
     C    10.3399199769   -2.1061214295   -0.1466652271
     C    10.1879369368   -3.3141827755   -0.0961106222
     C    10.0291519900   -4.7246262704   -0.0366861326
     C     8.7418355776   -5.2911304702    0.0600822937
     C     8.5735573433   -6.6680589997    0.1195715998
     C     9.7003385148   -7.4902304784    0.0826567502
     C    10.9901811691   -6.9348534801   -0.0124898812
     C    11.1620320380   -5.5643988831   -0.0726699578
     C    12.0502334386   -8.0235536973   -0.0318468815
     C    12.8643668434   -7.9959073616   -1.3341461365
     C    12.9937302200   -7.9101122042    1.1754555907
     C    11.1911234326   -9.2737947905    0.0586451417
     C     9.8259423252   -8.9457703284    0.1269412895
     C     8.8545091332   -9.9423841333    0.2198593447
     C     9.2638436965  -11.2739709611    0.2433445756
     C    10.6207105912  -11.6022827590    0.1749968174
     C    11.5923779570  -10.6028334924    0.0817889389
     C    13.7662193934    0.8095564069    2.0927066817
     C    14.6648706575    1.4697921002    1.4314067684
     C    14.1242934994    0.2495921996    0.7508383608
     C    13.1806375448    0.3631466432   -0.4298740774
     H     2.9123044138   -1.6045741172    0.4771009167
     H     5.3815792444   -1.7289277718    0.2610598781
     H     3.0797996120    2.7064350152    0.3936238786
     H     4.7287643393    4.1244100863   -1.0915516680
     H     5.7308280789    3.0038446825   -2.0398752648
     H     6.4698337655    4.4182367941   -1.2581127401
     H     4.9657493084    4.2271965952    1.4391459109
     H     6.7115639793    4.4966259292    1.2761669400
     H     6.1112990646    3.1559458561    2.2755928979
     H     7.9392466707   -1.3087349027    0.0251474935
     H     8.7410337353    3.6127803873   -0.1157174713
     H    13.8635115245    5.9812401908   -0.3205183445
     H    14.3185660353    8.4174843803   -0.3131181314
     H     9.6215705078    6.7221037244   -0.2244048924
     H     8.3779210120    8.6951055296   -1.4735192031
     H     9.5961688556    9.6173201588   -2.3817679636
     H     8.3353153628   10.4674870727   -1.4619508605
     H     8.4116637764    8.6842137396    1.0687371852
     H     8.3718688217   10.4567049133    1.0758044940
     H     9.6556368155    9.5956755178    1.9527982484
     H    14.2514490978   11.0345726477   -0.2908071388
     H    13.6671338692   13.4473917442   -0.2667233643
     H    11.3009586924   14.1644687901   -0.2184025356
     H     9.4729825695   12.4854935641   -0.1922758751
     H     7.8776609242   -4.6337302823    0.0874641996
     H     7.5754164678   -7.0920960315    0.1938562075
     H    12.1515585537   -5.1202503225   -0.1452543609
     H    13.4307493069   -7.0610204914   -1.4122141605
     H    12.2125693659   -8.0800524181   -2.2099162430
     H    13.5772214669   -8.8276705778   -1.3513116737
     H    13.5630915364   -6.9748855478    1.1305169871
     H    13.7065207263   -8.7421837818    1.1768553896
     H    12.4349691643   -7.9309763959    2.1168274680
     H     7.7983485344   -9.6894162737    0.2731133924
     H     8.5218595311  -12.0648600295    0.3156592465
     H    10.9221500138  -12.6463886707    0.1943128732
     H    12.6461690478  -10.8673483407    0.0285959482
     H    13.1544272656    0.6826020900    2.9743710356
     H    15.3491013716    2.3022869231    1.3494502142
     H    14.7457164779   -0.6509451165    0.6878239571
     H    13.6788107232    0.2533581135   -1.3991944189
