69
-1.8676515819762521e+03 frame 69   xyz file generated by TeraChem
    Br     1.1480786913   -0.1279071072    1.4336760741
     C     3.0795957963   -0.0191659043    1.1325514310
     C     3.8189130289   -1.1984637179    1.1425269313
     C     5.1942815416   -1.1322741681    0.9303048062
     C     5.7891561495    0.1093932755    0.7141688784
     C     5.0192422976    1.2845444758    0.7089618086
     C     3.6476201229    1.2323755687    0.9196089402
     C     5.8803973348    2.5120701079    0.4607366927
     C     5.4613260290    3.2476689752   -0.8208754944
     C     5.8374817911    3.4749265098    1.6571745886
     C     7.2539956677    1.8790232050    0.3138079143
     C     7.1845985289    0.4703806776    0.4686745308
     C     8.3165118521   -0.3088366923    0.3819305791
     C     9.5693834143    0.2974060997    0.1351975160
     C     9.6368618435    1.7150962236   -0.0299808037
     C     8.4569028100    2.4897400955    0.0682209615
     C    10.9036675312    2.3308689196   -0.3280688269
     C    10.9991256468    3.7298737314   -0.5697791019
     C    11.0884638871    4.9311803990   -0.7767225663
    Si    11.2522817564    6.7482658102   -1.0754107932
     C    12.4930623730    7.4327237460    0.1620557079
     C    11.8587367323    7.0013893120   -2.8380630484
     C     9.5620865923    7.5359320762   -0.8290905463
     C    12.0358859756    1.5514271627   -0.3945155301
     C    12.0043202021    0.1237309275   -0.1385314391
     C    10.7720426371   -0.4951244865    0.0660795755
     C    10.6874867648   -1.9053054642    0.2361859923
     C    10.6114944318   -3.1169569229    0.3846456898
    Si    10.5281157649   -4.9499197235    0.6195544889
     C     9.7164507165   -5.7085937631   -0.8980941521
     C    12.2873969022   -5.5828894144    0.8258435063
     C     9.5095960665   -5.2977614207    2.1622932950
     C    13.2871939643   -0.6187939386   -0.0525034267
     C    14.5093223012   -0.0154656782    0.0895427129
     C    14.3227440608    1.4383022474    0.1448177156
     C    13.4292174557    1.7869637189   -0.8266527755
     H     3.3341636410   -2.1536139107    1.3146462072
     H     5.7846915104   -2.0447249771    0.9364547539
     H     3.0359218484    2.1295087043    0.9199910607
     H     4.4459136317    3.6462279190   -0.7174429223
     H     5.4855367179    2.5784933682   -1.6868935984
     H     6.1386772916    4.0872390002   -1.0110410408
     H     4.8254797407    3.8737498532    1.7894115066
     H     6.5162144172    4.3179000597    1.4875760146
     H     6.1351437513    2.9698966311    2.5817942622
     H     8.2681849011   -1.3870726110    0.5055131631
     H     8.5264255938    3.5673972153   -0.0574090766
     H    13.4682315895    6.9443892764    0.0582889404
     H    12.1465607573    7.2881487581    1.1913504863
     H    12.6339675739    8.5083222461    0.0004496966
     H    12.8310157127    6.5217195950   -2.9959229777
     H    11.9714311848    8.0719704344   -3.0478220297
     H    11.1513843818    6.5868719101   -3.5647994367
     H     9.1919225883    7.3692158887    0.1885903881
     H     8.8265030891    7.1283190448   -1.5315436688
     H     9.6218724853    8.6186362034   -0.9933667030
     H    10.2922549229   -5.4966113663   -1.8056742502
     H     8.7007736207   -5.3231312624   -1.0399095204
     H     9.6520693712   -6.7974573087   -0.7840999691
     H    12.8936248915   -5.3696836567   -0.0616676771
     H    12.2831274703   -6.6689050713    0.9787869886
     H    12.7759789130   -5.1222767636    1.6917164448
     H     8.4877039673   -4.9162334439    2.0585769271
     H     9.9587026524   -4.8341248127    3.0475021608
     H     9.4507479244   -6.3785166486    2.3391414388
     H    13.2076473775   -1.6990852083    0.0584681417
     H    15.3888243963   -0.5877188633    0.3824546478
     H    14.2522175755    1.8771413909    1.1450378047
     H    13.6057609649    1.2783211025   -1.7816987792
