242
-4.3413447847025745e+03 frame 104   xyz file generated by TeraChem
     C     8.5485998025    8.3027111688    0.4993061727
     C     7.8263236144    8.6596664197    1.7981634567
     C     6.4219798163    8.0441791672    1.8502058158
     C     5.3944898614    8.7649213518    0.9780225793
     C     4.0852562729    7.9810751283    0.7199571538
     C     3.0943021860    8.9020686428   -0.0276302101
     C     1.7650391981    8.2540159247   -0.4041452724
     C     0.7565613265    9.2019063871   -1.0636528371
     C     1.2612593842    9.7560682854   -2.3952071818
     C    -0.5814515865    8.4902773018   -1.2578549163
     C     4.3688755706    6.7053485940   -0.0523307503
     C     4.9169882146    6.5707787686   -1.3180399454
     C     5.1131835921    5.2918947747   -1.8654459166
     C     4.7605196240    4.1656318452   -1.1001161358
     C     4.2092794642    4.2946206478    0.1712254649
     C     4.0092183267    5.5712716659    0.6942021244
     C     3.4641724765    6.0180049018    1.9777715241
     C     3.4955798254    7.4238928792    2.0053315288
     C     3.0309287072    8.1114522659    3.1188303228
     C     2.5384347345    7.3867346155    4.2074614910
     C     2.5116179359    5.9900416048    4.1796783024
     C     2.9743189121    5.2935048330    3.0640855923
     C     5.7520116662    5.1443957225   -3.1945630022
     C     6.9302477263    5.8543935925   -3.4502039790
     C     7.6577362186    5.7110231061   -4.6285971371
     C     8.9039259870    6.5029461525   -4.8179408714
     C    10.1631804667    5.8861624274   -4.7653531685
     C    11.3331104307    6.6200199823   -4.9444684289
     C    11.2392319961    7.9880515747   -5.1946320916
     C     9.9844758929    8.6177106839   -5.2527145010
     C     8.8236494956    7.8841026013   -5.0539558960
     C    10.1286095114   10.0903526878   -5.6025192503
     C     9.5183501615   11.0234326020   -4.5326015185
     C    10.1014715222   10.8998578594   -3.1282439055
     C     9.6236172032   11.9915929650   -2.1623832542
     C     8.1198130672   11.9239789702   -1.8999066203
     C    10.3977189281   11.9216731587   -0.8476247473
     C     9.4484570507   10.4076504733   -6.9583641576
     C     9.9621871094    9.6126984868   -8.1553440331
     C     9.1577979508    9.8221630675   -9.4434371117
     C     9.2001839961   11.2701127755   -9.9293296259
     C     9.6585018976    8.8807915825  -10.5370718408
     C    11.6399048460   10.2257245281   -5.6935192845
     C    12.2723175252    8.9925847186   -5.4556126993
     C    13.6614077145    8.8815797265   -5.4971254166
     C    14.4162926814   10.0191377443   -5.7789469978
     C    13.7908678044   11.2456427346   -6.0162760411
     C    12.3982479561   11.3548183035   -5.9755303978
     C     7.1949044796    4.8143777956   -5.6188478985
     C     5.9691169523    4.1224044883   -5.4115761524
     C     5.2321625295    4.3019948394   -4.2060017546
     C     3.9671237070    3.6469448788   -4.0844093458
     C     3.4546193674    2.8302917058   -5.0516118847
     C     2.1326527249    2.2005370615   -4.8110455228
     C     1.9617772099    0.8074643712   -4.8774130051
     C     0.7396553714    0.2143556755   -4.5743549532
     C    -0.3306747390    1.0252240612   -4.1999816005
     C    -0.1761078912    2.4197523234   -4.1310944747
     C     1.0440387831    3.0041227747   -4.4332580180
     C    -1.4709639936    3.0928491361   -3.7082167104
     C    -2.0027064422    4.0486871376   -4.8034584178
     C    -2.2102404876    3.4276086903   -6.1812664641
     C    -2.8464397583    4.3736776310   -7.2071665621
     C    -1.9848167811    5.6060363744   -7.4776642966
     C    -3.1288625657    3.6258078177   -8.5086183691
     C    -1.3099666120    3.9038076536   -2.4010645943
     C    -0.7593538189    3.1281884577   -1.2085763028
     C    -0.6019803597    3.9649614097    0.0666996072
     C    -1.9449311498    4.4231345706    0.6341662673
     C     0.1797401206    3.1823656900    1.1202508877
     C    -2.3811429721    1.8895875507   -3.5223810995
     C    -1.7052769921    0.6932318426   -3.8225879303
     C    -2.3547926977   -0.5369241801   -3.7313915897
     C    -3.6911202857   -0.5606667644   -3.3346964687
     C    -4.3642184774    0.6258704715   -3.0336592675
     C    -3.7119021238    1.8584156730   -3.1261516196
     C     4.2001002347    2.6175501207   -6.2761601423
     C     5.4648464159    3.2622593794   -6.4322703311
     C     6.1975230029    3.0607339177   -7.6398373558
     C     7.4727265740    3.7282728829   -7.8031994845
     C     7.9119934701    4.5844926905   -6.8321310178
     C     8.3343501356    3.5203586731   -8.9946076086
     C     8.8149274118    4.6330270244   -9.7039522137
     C     9.7122392324    4.4913272308  -10.7585220365
     C    10.1417587138    3.2132392583  -11.1095585746
     C     9.6596955244    2.0875668048  -10.4186789343
     C     8.7606673533    2.2352310450   -9.3734426997
     C    10.2751735218    0.8100275096  -10.9657842980
     C     9.2016687971   -0.1569914438  -11.5302793015
     C     8.1716105488    0.3981985757  -12.5187159777
     C     8.6034334733    0.6472842358  -13.9707706771
     C     9.0901032312   -0.6279043416  -14.6564036862
     C     7.4352301821    1.2540134985  -14.7470797424
     C    11.0657435953    0.0405007350   -9.8791919896
     C    12.1845868004    0.8225222655   -9.1983767328
     C    12.9001416814    0.0511702833   -8.0826677354
     C    13.6255723006   -1.1893261245   -8.6031856933
     C    13.8801810363    0.9666182103   -7.3507819238
     C    11.1992339838    1.3610948999  -12.0378403227
     C    11.1002705386    2.7613703587  -12.1194381455
     C    11.8586823100    3.4777228336  -13.0448360280
     C    12.7265039689    2.7791428239  -13.8831168689
     C    12.8388585208    1.3893937002  -13.7916552399
     C    12.0762034230    0.6728689667  -12.8658736082
     C     5.6401054359    2.2684788703   -8.6558275112
     C     4.3913498499    1.6641472122   -8.5261006449
     C     3.6927602090    1.8527295826   -7.3305489777
     C     3.7555184593    0.8258354136   -9.6374930236
     C     4.6690718384    0.6822114119  -10.8558156543
     C     3.4473526891   -0.5818840793   -9.1006878801
     C     2.4459451684    1.4947295675  -10.0881263002
     C     8.6545694150    8.2140925084    3.0015905161
     H     7.9747689380    8.5959820179   -0.3875175088
     H     8.7181375134    7.2191864712    0.4438792214
     H     9.5257966436    8.7961587597    0.4424546755
     H     7.7218002816    9.7551183215    1.8442465067
     H     6.0636404894    8.0447778092    2.8877453878
     H     6.4946837911    6.9877145722    1.5533625225
     H     5.8275091298    9.0085096103   -0.0014378986
     H     5.1368089988    9.7257404244    1.4454676225
     H     3.6020696932    9.2750485696   -0.9267091033
     H     2.9075721189    9.7802484583    0.6068094942
     H     1.3057627599    7.8334170790    0.5009645301
     H     1.9455378978    7.4064518079   -1.0812869331
     H     0.5960845643   10.0501072656   -0.3800921768
     H     1.4747801540    8.9381992841   -3.0962174924
     H     2.1781524858   10.3431812936   -2.2767732787
     H     0.5087764439   10.4051605030   -2.8583737424
     H    -0.4674992297    7.6349551975   -1.9372504508
     H    -1.3313774845    9.1623451150   -1.6915444908
     H    -0.9749114227    8.1111455744   -0.3068824740
     H     5.1846036817    7.4491180913   -1.9019818870
     H     4.9444103124    3.1733483411   -1.5028283862
     H     3.9539270303    3.4071382357    0.7453242934
     H     3.0493869164    9.1988412338    3.1496720945
     H     2.1732442392    7.9142647062    5.0848999611
     H     2.1271891912    5.4417470002    5.0358611365
     H     2.9532706781    4.2064800593    3.0464327737
     H     7.3207374670    6.5099828429   -2.6757096821
     H    10.2196588558    4.8166385679   -4.5787572011
     H    12.3002901005    6.1253134962   -4.8986542530
     H     7.8463576945    8.3603528263   -5.1013514587
     H     8.4359078945   10.8422385906   -4.5112767491
     H     9.6489313248   12.0576344483   -4.8835230834
     H    11.1968144407   10.9486938952   -3.1907688864
     H     9.8606385306    9.9134496074   -2.7048450430
     H     9.8412989329   12.9644832924   -2.6306543896
     H     7.8476788532   10.9552863113   -1.4595735956
     H     7.5332958367   12.0518865094   -2.8161810988
     H     7.8106224002   12.7070344346   -1.1972691533
     H    10.2172000824   10.9643221505   -0.3421138121
     H    10.0901052988   12.7223043489   -0.1647352077
     H    11.4775645160   12.0130346618   -1.0142507715
     H     9.5670392287   11.4831749157   -7.1422431991
     H     8.3696705134   10.2301718362   -6.8397942205
     H     9.9495459835    8.5425662811   -7.9080506211
     H    11.0133028081    9.8715369757   -8.3480312079
     H     8.1087773318    9.5652801549   -9.2278913675
     H    10.2358601960   11.5810552685  -10.1208875940
     H     8.7716736838   11.9636269529   -9.1978517960
     H     8.6389861588   11.3851160789  -10.8641755970
     H    10.7065726378    9.0966195694  -10.7831465905
     H     9.0706178154    8.9910173278  -11.4558733297
     H     9.5994933512    7.8326241427  -10.2193590463
     H    14.1500225349    7.9273515231   -5.3145882914
     H    15.5005961665    9.9518783537   -5.8143964978
     H    14.3936480536   12.1234133112   -6.2349621003
     H    11.9217223378   12.3149895578   -6.1619195182
     H     3.3903741902    3.8067153177   -3.1796867284
     H     2.8082356781    0.1808284420   -5.1459637993
     H     0.6336093652   -0.8668537641   -4.6202030602
     H     1.1724064933    4.0835850306   -4.3866346558
     H    -1.3020981336    4.8906481227   -4.8741069709
     H    -2.9548850165    4.4679565671   -4.4469165361
     H    -2.8497467965    2.5401444437   -6.0829055319
     H    -1.2469909846    3.0743990202   -6.5768144074
     H    -3.8090952531    4.7143758444   -6.7948759270
     H    -0.9922589982    5.3099865345   -7.8428276140
     H    -1.8429820729    6.2164720094   -6.5795671261
     H    -2.4440121988    6.2439189799   -8.2422868883
     H    -2.1932048637    3.2701208740   -8.9597334567
     H    -3.6263016123    4.2737631206   -9.2399140278
     H    -3.7696487867    2.7528002114   -8.3366741601
     H    -2.2933569315    4.3267798162   -2.1572058000
     H    -0.6511192216    4.7590074747   -2.6098780412
     H     0.2221964871    2.7146597549   -1.4773166850
     H    -1.4092841691    2.2680678220   -0.9923915393
     H    -0.0155146687    4.8621338117   -0.1880173561
     H    -2.5783847966    3.5568811943    0.8666748191
     H    -2.4948293078    5.0633120413   -0.0643743698
     H    -1.8020989892    4.9912580951    1.5609587987
     H    -0.3563653470    2.2670765530    1.4044972370
     H     0.3278140889    3.7786501445    2.0283222514
     H     1.1674502242    2.8883860092    0.7447487548
     H    -1.8331341897   -1.4621996248   -3.9645661897
     H    -4.2137213572   -1.5106899027   -3.2585130112
     H    -5.4058631013    0.5901534257   -2.7249097214
     H    -4.2458326174    2.7768044770   -2.8906906374
     H     8.8626030964    5.0907168900   -6.9669294201
     H     8.4736200160    5.6248025995   -9.4178098456
     H    10.0719619387    5.3699649232  -11.2889452207
     H     8.4079726465    1.3666521035   -8.8213772357
     H     8.6524458326   -0.5515095391  -10.6638958379
     H     9.7213388540   -1.0208067950  -11.9654171326
     H     7.7555875344    1.3288552007  -12.1096316664
     H     7.3338301485   -0.3149159632  -12.5495540485
     H     9.4247285607    1.3749611904  -13.9785391846
     H     8.3078249463   -1.3986310461  -14.6384134445
     H     9.9810677930   -1.0410621523  -14.1720257037
     H     9.3442721346   -0.4334042085  -15.7051431196
     H     6.5855304545    0.5587277380  -14.7778731434
     H     7.7190667599    1.4788243265  -15.7820574344
     H     7.0880716166    2.1845572127  -14.2819603548
     H    11.4700069040   -0.8655177553  -10.3485077755
     H    10.3471138818   -0.2988836659   -9.1196782461
     H    11.7665816921    1.7447224425   -8.7729895086
     H    12.9275006255    1.1345529088   -9.9463082956
     H    12.1373857357   -0.2769975210   -7.3595038179
     H    14.3754718408   -0.9077733844   -9.3542480068
     H    12.9400673997   -1.9074202961   -9.0654303098
     H    14.1468534917   -1.7066576314   -7.7891275908
     H    14.6577961364    1.3257982879   -8.0374683290
     H    14.3780836790    0.4386288625   -6.5290094130
     H    13.3725914744    1.8438248101   -6.9322775509
     H    11.7807494287    4.5603482883  -13.1118212305
     H    13.3256945232    3.3212148153  -14.6101506907
     H    13.5262518799    0.8606312006  -14.4469248414
     H    12.1702712154   -0.4091088902  -12.8012409351
     H     6.1988996835    2.1497697774   -9.5764494047
     H     2.7107340541    1.4062849618   -7.2181737854
     H     5.6159382184    0.1933632969  -10.5987867108
     H     4.8965322556    1.6509866895  -11.3154547386
     H     4.1708571549    0.0658688332  -11.6126165636
     H     4.3634562038   -1.0815951158   -8.7651275826
     H     2.9953073114   -1.1929561180   -9.8911432279
     H     2.7464592386   -0.5531895876   -8.2595401509
     H     2.6370018463    2.4988430723  -10.4836274383
     H     1.7334194455    1.5830191132   -9.2611444357
     H     1.9732425772    0.8990507592  -10.8783326773
     H     8.7633473806    7.1216000979    3.0119882542
     H     8.1798867739    8.5114523715    3.9441284208
     H     9.6610795342    8.6484860803    2.9768111814
