66
-1.8285289060524728e+03 frame 61   xyz file generated by TeraChem
     C    -1.2265536662    1.8851915633    0.6112882985
     C    -1.1631485760    2.7340071343    1.8840379890
     C     0.0155392295    1.0558737172    0.3636407612
     C     1.3119279273    1.4612018646    0.2529384248
     C     2.3453442465    0.5042601837    0.0185280219
     C     3.6992118961    0.8999736201   -0.0993224256
     C     4.0449307313    2.2735491536    0.0193954962
     C     4.3442441921    3.4554728303    0.1220035211
    Si     4.8170790266    5.2348503061    0.2853913944
     C     3.9041148245    5.9545840735    1.7643926660
     C     6.6780060857    5.3228888740    0.5450843591
     C     4.3257177020    6.1291334535   -1.2953862043
     C     4.7165626433   -0.0601852993   -0.3334296465
     C     6.0839563859    0.3163178090   -0.4557202062
     C     7.0567734091   -0.6201087712   -0.6803827026
     C     6.7160547984   -1.9922354529   -0.7957887274
     C     5.4116585629   -2.3912974288   -0.6839561844
     C     4.3722991865   -1.4465665718   -0.4503861539
     C     3.0178363838   -1.8457248864   -0.3311217610
     C     1.9996200242   -0.8872280869   -0.0991513667
     C     0.6369349622   -1.2771933301    0.0228352695
     C    -0.3245322328   -0.3297473423    0.2499500954
     C    -1.7702848489   -0.4546281342    0.4212319359
     C    -2.3080567765    0.8260302874    0.6356087890
     C    -3.6714681502    0.9957087562    0.8394205492
     C    -4.4689444764   -0.1435539614    0.8186323184
    Br    -6.3947234201    0.0614026810    1.1055737624
     C    -3.9615987339   -1.4223533504    0.6041775644
     C    -2.5931822646   -1.5799488613    0.4029078702
     C     2.6766510048   -3.2206294338   -0.4403620722
     C     2.3837088655   -4.4053587990   -0.5299106101
    Si     1.9400014587   -6.1959792083   -0.6474282068
     C     3.5372901900   -7.1885428720   -0.6848450114
     C     0.9151354282   -6.6426818145    0.8660378819
     C     0.9470813216   -6.4606399735   -2.2230346977
     H    -1.3946464014    2.5581315900   -0.2427108914
     H    -0.9967846203    2.1029144675    2.7632167491
     H    -2.0979785472    3.2864485090    2.0255150122
     H    -0.3468596447    3.4608297320    1.8198723324
     H     1.5832642046    2.5097532310    0.3393358178
     H     4.1621497228    5.4237490944    2.6874084737
     H     2.8183037663    5.8958860057    1.6294381665
     H     4.1716272302    7.0101903197    1.8946119028
     H     6.9767959191    4.7982797053    1.4593431679
     H     6.9966257707    6.3684284581    0.6355325650
     H     7.2194476235    4.8769723377   -0.2967290145
     H     3.2457956594    6.0664905206   -1.4691442565
     H     4.8367275448    5.7059391399   -2.1672397236
     H     4.5963289726    7.1898164442   -1.2265046930
     H     6.3396678116    1.3678327401   -0.3663425389
     H     8.0953065088   -0.3140761882   -0.7712309419
     H     7.4958780456   -2.7274933301   -0.9739262133
     H     5.1469727931   -3.4407506955   -0.7721106042
     H     0.3849375874   -2.3300675167   -0.0656486648
     H    -4.1033420523    1.9767034901    1.0107567810
     H    -4.6254378482   -2.2799653789    0.5967743497
     H    -2.1829813691   -2.5725347087    0.2368073212
     H     4.1290922986   -7.0201101631    0.2218104690
     H     4.1540462579   -6.9193774755   -1.5495804755
     H     3.3148829489   -8.2604947372   -0.7486384507
     H     1.4741456878   -6.4636990698    1.7910745498
     H     0.6401608948   -7.7039849837    0.8360103173
     H    -0.0090822757   -6.0554132592    0.9073235099
     H     1.5296225153   -6.1916697636   -3.1109757782
     H     0.0320733130   -5.8580111752   -2.2196023074
     H     0.6577152539   -7.5146090987   -2.3136667784
