66
-1.8159643915619477e+03 frame 66   xyz file generated by TeraChem
     C    -1.2101639446    1.9054016740    0.5461228796
     C    -1.1613269371    2.7740219864    1.8061666609
     C     0.0357880982    1.0736905012    0.3283761584
     C     1.3337142514    1.4772726521    0.2290476256
     C     2.3704115497    0.5176683840    0.0207284675
     C     3.7256561720    0.9116306841   -0.0856432767
     C     4.0703173005    2.2865946906    0.0205325043
     C     4.3687466963    3.4696835035    0.1122168909
    Si     4.8382713979    5.2508620074    0.2603474390
     C     3.9272441939    5.9814465937    1.7353572394
     C     6.6996586307    5.3453621000    0.5153284888
     C     4.3417710254    6.1316467819   -1.3264591331
     C     4.7458960506   -0.0510114168   -0.2966493534
     C     6.1146511275    0.3239563488   -0.4080154808
     C     7.0898878203   -0.6148686291   -0.6115477943
     C     6.7500706403   -1.9881104732   -0.7152429093
     C     5.4443834733   -2.3856967659   -0.6129045633
     C     4.4025724162   -1.4384450534   -0.4012780918
     C     3.0466269359   -1.8359782112   -0.2919862223
     C     2.0254556633   -0.8752776458   -0.0829779323
     C     0.6611994051   -1.2632398499    0.0285875919
     C    -0.3041351874   -0.3136866580    0.2310111378
     C    -1.7526833044   -0.4359269658    0.3854535925
     C    -2.2941109392    0.8482157611    0.5720852696
     C    -3.6623744299    1.0094759335    0.7508468115
     C    -4.4841800274   -0.1192731629    0.7401956057
     C    -3.9438311312   -1.3951123447    0.5521157170
     C    -2.5734497953   -1.5640624484    0.3729373197
     C     2.7069761112   -3.2122456263   -0.3889232762
     C     2.4153339017   -4.3981134302   -0.4678656513
    Si     1.9736561213   -6.1894614645   -0.5732742348
     C     0.9795611137   -6.4662095250   -2.1462359567
     C     3.5716782749   -7.1812345167   -0.6062510885
     C     0.9502732591   -6.6289537589    0.9434214253
     H    -1.3626355961    2.5671708626   -0.3197785364
     H    -1.0072678397    2.1561862629    2.6971495679
     H    -2.0979654492    3.3282691015    1.9278493778
     H    -0.3439910971    3.5001145654    1.7434173571
     H     1.6040069207    2.5270633174    0.3039530652
     H     4.1876184306    5.4582507855    2.6620799793
     H     2.8412414898    5.9206342431    1.6030199277
     H     4.1940749088    7.0383011237    1.8567627601
     H     7.0013660654    4.8290185839    1.4333472301
     H     7.0166117814    6.3921646344    0.5959536024
     H     7.2399731909    4.8928474983   -0.3237047662
     H     3.2618680192    6.0638343559   -1.4983708245
     H     4.8531945295    5.7035661363   -2.1956966599
     H     4.6087662351    7.1937823195   -1.2662033873
     H     6.3694721389    1.3764564058   -0.3278214601
     H     8.1294100828   -0.3099238857   -0.6945990266
     H     7.5315630418   -2.7254785632   -0.8767429152
     H     5.1804246817   -3.4360789661   -0.6919768501
     H     0.4103963813   -2.3173297504   -0.0485345323
     H    -4.0923807052    1.9978001531    0.8963869234
     H    -5.5561793931   -0.0055678707    0.8789495567
     H    -4.5996804568   -2.2616872123    0.5463429239
     H    -2.1532710098   -2.5563357566    0.2278505010
     H     1.5609819265   -6.2027031004   -3.0365535372
     H     0.0639752964   -5.8644244920   -2.1461004899
     H     0.6911108159   -7.5210548689   -2.2293749965
     H     4.1870881069   -6.9171614639   -1.4735219983
     H     3.3500279271   -8.2537554514   -0.6629507882
     H     4.1646192225   -7.0066459713    0.2985030301
     H     0.0266126377   -6.0406996797    0.9830693700
     H     1.5104198901   -6.4462273053    1.8670469704
     H     0.6744090038   -7.6901616750    0.9184547710
