62
-1.4607424274930659e+03 frame 59   xyz file generated by TeraChem
     C    -1.1864221352    1.9242320370    0.5440328758
     C    -1.1383279908    2.7890229475    1.8067501570
     C     0.0559755082    1.0864487536    0.3289941355
     C     1.3570755899    1.4825941121    0.2358148820
     C     2.3893316362    0.5186196247    0.0289413404
     C     3.7482385106    0.9084607389   -0.0715412385
     C     4.0986548558    2.2769183385    0.0373199333
     C     4.4042218290    3.4531374271    0.1299393879
     C     4.7668616608    4.8238907420    0.2374143973
     C     3.7851647589    5.8075455731    0.4553267955
     C     4.1472920415    7.1449749036    0.5588331609
     C     5.4857255323    7.5222747907    0.4479569032
     C     6.4653472127    6.5529873788    0.2320127948
     C     6.1143537447    5.2128115623    0.1268595325
     C     4.7640104531   -0.0620261220   -0.2813708374
     C     6.1348066334    0.3051875146   -0.3866931448
     C     7.1066946317   -0.6378782962   -0.5893772972
     C     6.7601084995   -2.0083888438   -0.6981917977
     C     5.4511864249   -2.3982337536   -0.6017942518
     C     4.4139649862   -1.4465559773   -0.3914586272
     C     3.0542331427   -1.8397751281   -0.2896134221
     C     2.0376638205   -0.8712881963   -0.0804070981
     C     0.6713022885   -1.2517810590    0.0246473296
     C    -0.2906552065   -0.2981582338    0.2262292145
     C    -1.7404228697   -0.4136983558    0.3744385424
     C    -2.2760543703    0.8727308395    0.5625667662
     C    -3.6441395587    1.0406233574    0.7362306539
     C    -4.4718955537   -0.0837492354    0.7191162599
     C    -3.9373990864   -1.3617802605    0.5295272727
     C    -2.5671563534   -1.5373637625    0.3553792704
     C     2.7067932942   -3.2083889943   -0.3968058272
     C     2.4009826681   -4.3849181417   -0.4867797138
     C     2.0360909409   -5.7551601480   -0.5906770640
     C     3.0163911830   -6.7421544751   -0.7997834996
     C     2.6514322210   -8.0790407306   -0.8999182205
     C     1.3115315384   -8.4526714639   -0.7942846857
     C     0.3332427954   -7.4801368844   -0.5868841253
     C     0.6870253831   -6.1404606108   -0.4852627260
     H    -1.3318768549    2.5894554716   -0.3204619244
     H    -0.9904932427    2.1680090709    2.6965778009
     H    -2.0727189714    3.3474832345    1.9265068144
     H    -0.3172859400    3.5113742912    1.7490589715
     H     1.6324340357    2.5308131783    0.3148676173
     H     2.7437551266    5.5111439898    0.5420145627
     H     3.3812262777    7.8970034470    0.7271020789
     H     5.7643117368    8.5693181794    0.5298027195
     H     7.5090633740    6.8424499903    0.1448718139
     H     6.8748941669    4.4557836528   -0.0412352458
     H     6.3954308923    1.3559596618   -0.3025295830
     H     8.1480128021   -0.3377513414   -0.6675719207
     H     7.5378534970   -2.7499139250   -0.8588203520
     H     5.1818240149   -3.4470183396   -0.6848411490
     H     0.4146658576   -2.3041016959   -0.0567705260
     H    -4.0695773116    2.0307651844    0.8829555523
     H    -5.5438333732    0.0352091441    0.8538869466
     H    -4.5977056402   -2.2249299508    0.5186332447
     H    -2.1517348394   -2.5315316534    0.2090209382
     H     4.0589396131   -6.4486856283   -0.8820268880
     H     3.4164781351   -8.8335857090   -1.0614311320
     H     1.0307862110   -9.4993400285   -0.8734804688
     H    -0.7115992505   -7.7667165186   -0.5037674833
     H    -0.0725638332   -5.3808798834   -0.3239007610
