49
-9.6133541948791981e+02 frame 42   xyz file generated by TeraChem
     C     3.3444383085   -0.9933867751    0.1510993937
     C     2.3140424826   -0.0453902144   -0.4833927717
     C     2.9462970111    1.3250276572   -0.6691125719
     C     4.0855951759    1.5726441234   -1.3514419917
     C     4.6186224348    2.9080978673   -1.4763211177
     C     5.7758066957    3.2461697055   -2.1442927835
     C     6.6449279165    2.3431653310   -2.8158512455
     C     7.7866581361    2.7080904286   -3.4613616333
     C     8.6797727523    1.7905025419   -4.1386953142
     C     9.8424987723    2.2679589523   -4.7811975814
     C    10.6587825017    1.3564934881   -5.4087218253
     C    10.2711619629    0.0138096989   -5.3620744239
     N     9.1648571479   -0.3966223479   -4.7454402037
     N     8.3765824951    0.4749999896   -4.1403494892
     C     3.8243316546    3.9195488475   -0.8168415968
     C     2.6916197391    3.6171654559   -0.1506586456
     O     2.2474047725    2.3274434115   -0.0757414896
     C     1.7659506001    4.5589387767    0.5830583802
     C     0.3732491310    4.4965828773   -0.0666157423
     C     1.6667476184    4.1183583572    2.0536866962
     C     2.2859186068    5.9954952105    0.5237882835
     C     1.8983224972   -0.5928458244   -1.8589657953
     C     1.0811174607    0.0234336043    0.4232895028
     H     4.2267782455   -1.1162172796   -0.4851963724
     H     2.8921530320   -1.9812952347    0.2954066272
     H     3.6727049194   -0.6201543974    1.1274110661
     H     4.5961448560    0.7318839726   -1.8072048174
     H     6.0523016154    4.3004481463   -2.1530246494
     H     6.3959759299    1.2832034280   -2.8191165105
     H     8.0761937057    3.7581183151   -3.4849251436
     H    10.0712913974    3.3303074295   -4.7705651056
     H    11.5678282007    1.6566974390   -5.9214406788
     H    10.8617852695   -0.7674384416   -5.8331046070
     H     4.1531491670    4.9518067624   -0.8579284051
     H    -0.0421965869    3.4847993243   -0.0259447331
     H     0.4160192882    4.8122876800   -1.1151244654
     H    -0.3099900376    5.1677532554    0.4658654396
     H     1.2690037161    3.1027395899    2.1400362958
     H     0.9957322543    4.7956771170    2.5936663780
     H     2.6492744113    4.1504440667    2.5374656959
     H     2.3529988439    6.3597754143   -0.5073859472
     H     3.2727959070    6.0859516527    0.9906947952
     H     1.5943176191    6.6485605396    1.0663437056
     H     2.7625986287   -0.6946466269   -2.5232262346
     H     1.1685407540    0.0664686601   -2.3420285522
     H     1.4402007529   -1.5815082405   -1.7390933751
     H     1.3311421447    0.4120306814    1.4157984200
     H     0.6759073923   -0.9868454235    0.5449602550
     H     0.2963188334    0.6552668865   -0.0044051530
