49
-9.6137584702715799e+02 frame 38   xyz file generated by TeraChem
     C     1.6059714510    1.4180632323    0.1108060006
     C     2.8901974325    0.5712213273    0.0867204967
     C     3.2080708617    0.1225646336    1.4949030699
     C     3.3534467374   -1.1423043920    1.9445911373
     C     3.6675130653   -1.4179170978    3.3269374893
     C     3.8455652526   -2.6756662281    3.8658057285
     C     3.7581613308   -3.9046823159    3.1622157345
     C     3.9442281923   -5.1314683781    3.7283480808
     C     3.8569694334   -6.3744998690    3.0022149502
     C     4.0612306202   -7.6082521031    3.6495439782
     C     3.9643249835   -8.7578361641    2.8893780380
     N     3.6867381392   -8.7439183937    1.5761146744
     C     3.5096362051   -7.5253646154    1.0580571425
     N     3.5754153331   -6.3552003732    1.6769950474
     C     3.7862325345   -0.2412536467    4.1542120713
     C     3.6275773179    1.0011056775    3.6517933547
     O     3.3522196826    1.1889381704    2.3303740575
     C     3.7049772750    2.3173476584    4.3899724594
     C     4.8188564386    3.1775156907    3.7698357738
     C     2.3558901837    3.0423127315    4.2477351441
     C     4.0050516287    2.0995988445    5.8733112977
     C     2.6873445042   -0.6262972084   -0.8409863439
     C     4.0574198859    1.4276531177   -0.4340756114
     H     0.7561802249    0.8323812309    0.4791349160
     H     1.3735201603    1.7574305415   -0.9047138073
     H     1.7220258033    2.2997777526    0.7479099466
     H     3.2293715745   -1.9554055594    1.2411715548
     H     4.0784154749   -2.7278049514    4.9291672069
     H     3.5280956999   -3.8883143342    2.0977626556
     H     4.1755960123   -5.2054028657    4.7899083158
     H     4.2880178953   -7.6510467315    4.7105409619
     H     4.1142388266   -9.7367729982    3.3426664049
     H     3.2826576688   -7.4890494388   -0.0077362946
     H     4.0061531530   -0.3611482947    5.2088537268
     H     4.6364611906    3.3646468456    2.7070648598
     H     5.7943428262    2.6896737841    3.8748047718
     H     4.8616385701    4.1441578704    4.2840327131
     H     2.1138880857    3.2339626942    3.1979797146
     H     2.3986922599    4.0048746120    4.7697867552
     H     1.5449924448    2.4505833463    4.6873068703
     H     4.9647436983    1.5923730042    6.0212379569
     H     3.2206771415    1.5111516862    6.3620314540
     H     4.0574468626    3.0725910235    6.3728812657
     H     1.8546732142   -1.2559219221   -0.5088899397
     H     3.5886259184   -1.2457952978   -0.9055820065
     H     2.4559129020   -0.2641980305   -1.8482300695
     H     4.2260820449    2.3002504324    0.2042654015
     H     3.8286273942    1.7815624309   -1.4455470701
     H     4.9833320400    0.8431942456   -0.4767209740
