50
-1.1827623470105600e+03 frame 40   xyz file generated by TeraChem
    Br    -2.3566172190   -2.5175625033   -1.4268840042
     C    -1.5330247357   -0.7796978061   -1.0578121212
     C    -0.1585617698   -0.6381064303   -1.1759717462
     C     0.4099223048    0.6012537127   -0.8991253275
     C    -0.3877726784    1.6806542637   -0.5133173756
     C    -1.7796397275    1.5254697814   -0.4017582581
     C    -2.3440417958    0.2794293826   -0.6780107809
     C    -2.6616507205    2.6824365043   -0.0716541511
     N    -2.6925722120    3.6231676165   -1.0255000573
     C    -3.5049967658    4.6641914416   -0.8839495865
     C    -3.5346869460    5.6764831251   -1.9950447429
     C    -4.9699760114    6.1387905124   -2.2332516717
     C    -5.5262217739    6.6968794363   -0.9515465255
     C    -5.1978022299    6.0561393491    0.2629796296
     C    -4.3776891060    4.8238740032    0.2136321012
     C    -4.4179980925    3.7895810692    1.1617844276
     C    -3.4825791714    2.7318215392    1.0669541252
     C    -3.4282169673    1.7428539124    2.1687827235
     C    -2.2377974601    1.1281079268    2.5781307060
     C    -2.2305236650    0.2195313160    3.6315732428
     C    -3.4149082026   -0.0831726789    4.3003314042
     C    -4.5966797684    0.5526536844    3.9277790313
     C    -4.6127983213    1.4696353177    2.8784640331
     C    -5.8429614096    2.2397763281    2.4971854367
     C    -5.4624484669    3.6983130966    2.2465724388
     C    -5.6026921047    6.6519609777    1.4658709135
     C    -6.3729313903    7.8111092238    1.4709428749
     C    -6.7435653524    8.4046355565    0.2674687785
     C    -6.3049434555    7.8519181802   -0.9338264104
     O     0.1343293740    2.8888972336   -0.1976045406
     H     0.4671781308   -1.4733379085   -1.4718675200
     H     1.4872777692    0.7298209545   -0.9764471760
     H    -3.4183045318    0.1508303506   -0.5956127280
     H    -3.0978885603    5.2276179294   -2.8916087229
     H    -2.9146905195    6.5445777887   -1.7254258512
     H    -5.5737014836    5.2848374582   -2.5750607641
     H    -5.0096212938    6.8957672686   -3.0231233942
     H    -1.3045413093    1.3761213799    2.0835013368
     H    -1.2958105127   -0.2446239638    3.9347849617
     H    -3.4143021029   -0.7939939861    5.1225724547
     H    -5.5198208115    0.3478242709    4.4659004269
     H    -6.5974786511    2.1750356433    3.2876853635
     H    -6.2923448347    1.8222336615    1.5842430051
     H    -5.0830691677    4.1321350942    3.1832456934
     H    -6.3463940370    4.2760682908    1.9627410303
     H    -5.2888628950    6.2256611157    2.4126285844
     H    -6.6726005372    8.2537576347    2.4171168476
     H    -7.3480070779    9.3078523284    0.2629952370
     H    -6.5555770914    8.3329515109   -1.8769504825
     H     1.0978887285    2.8599705997   -0.3029540263
