42
-9.5676383716745340e+02 frame 55   xyz file generated by TeraChem
     C     7.5329401208    2.0505822191   -2.8443100465
     O     6.5348222002    1.1658475028   -2.3662961580
     C     5.4621495293    1.6949438782   -1.7314704130
     C     5.2861967182    3.0660760312   -1.5210364444
     C     4.1530277908    3.5253306448   -0.8551261932
     C     3.1856852800    2.6340154057   -0.3927754123
     C     3.3635020119    1.2734642240   -0.6042337089
     C     4.4901009406    0.7793802471   -1.2702625679
     C     4.6697289123   -0.6610457011   -1.4886989444
     N     3.8160741251   -1.5227874844   -1.0942838719
     C     4.1007380471   -2.9109593982   -1.3753048986
     C     2.9929054684   -3.5078863355   -2.2491467944
     N     3.2776389350   -4.8960593900   -2.5302365769
     C     2.4242491233   -5.7578268036   -2.1352895655
     C     2.6039706300   -7.1982935676   -2.3533711648
     C     3.7308412604   -7.6925318495   -3.0188281965
     C     3.9088508270   -9.0531430395   -3.2297417466
     C     2.9414370549   -9.9443761910   -2.7673822968
     C     1.8079832697   -9.4849654852   -2.1020585820
     C     1.6318052610   -8.1137713252   -1.8922106863
     O     0.5587932104   -7.5845570848   -1.2580700961
     C    -0.4392595129   -8.4692436269   -0.7797937220
     H     8.2912738794    1.4193352765   -3.3093288840
     H     7.9847607437    2.6207290697   -2.0242259272
     H     7.1266148509    2.7433364248   -3.5904953854
     H     6.0256867278    3.7776515758   -1.8707900962
     H     4.0305330945    4.5939179760   -0.6984268768
     H     2.3043917752    2.9983930360    0.1268629189
     H     2.6279679241    0.5543247685   -0.2554845512
     H     5.5878026154   -0.9598624633   -2.0104000312
     H     4.1186227476   -3.4606096265   -0.4242536965
     H     5.0755855002   -3.0595375991   -1.8679334647
     H     2.9749179955   -2.9581929466   -3.2001625722
     H     2.0181013381   -3.3594609772   -1.7564056351
     H     1.5063484444   -5.4589916958   -1.6132996645
     H     4.4664744419   -6.9734681119   -3.3675255898
     H     4.7903463681   -9.4176346971   -3.7489602208
     H     3.0641030958  -11.0130144860   -2.9236010944
     H     1.0684700556  -10.1964924492   -1.7522539098
     H    -1.1977660472   -7.8379025631   -0.3151802475
     H    -0.0329388843   -9.1615627209   -0.0332062457
     H    -0.8908378746   -9.0398484832   -1.5996877172
