54
-1.7319107042504888e+03 frame 112   xyz file generated by TeraChem
     C     1.8946733314   -0.0102318019    1.2090832785
     C     2.4691562811   -0.7054156049   -0.0194621544
     N     2.7890248117   -2.1087273055    0.2071848356
     C     1.8865536191   -3.1015013566   -0.0163914976
     C     0.5320042902   -2.8151928083   -0.3432043699
     C    -0.3767541958   -3.8196530686   -0.5926247645
     C    -0.0172499649   -5.1835637089   -0.5207226807
     C     1.3152976928   -5.4648253156   -0.1511502495
     C     2.2434327514   -4.4724783420    0.0809006854
     C    -0.9067245015   -6.2909357286   -0.7441290105
     C    -2.1462318925   -6.3362802633   -1.3232920266
     C    -2.8428715056   -5.2402600769   -2.0188716633
     C    -4.0442337316   -4.6481957986   -1.7103140837
     C    -4.4284939257   -3.6484300669   -2.6334474202
     C    -3.5243170419   -3.4871429789   -3.6587970633
     S    -2.1971545467   -4.5904654227   -3.4935870635
     C    -3.6293318105   -2.5275358177   -4.7368818138
     N    -4.6558881516   -1.7043381467   -4.8841416056
     C    -4.3614420054   -0.9682337393   -6.0032696346
     C    -3.1150112875   -1.3684350023   -6.5431650448
     N    -2.6798559331   -2.3668668362   -5.7080685968
     C    -2.5642886767   -0.7881965484   -7.6746171790
     C    -3.3056138538    0.2216260750   -8.2920601940
     C    -4.5475095134    0.6390111272   -7.7602795577
     C    -5.0837376579    0.0591162033   -6.6229884751
     C    -2.7062907747    0.8452244273   -9.5012758576
     O    -1.5276678491    0.7593099165   -9.7804350945
     O    -3.5147903777    1.5399744143  -10.3205879775
     C    -2.8396268798   -7.5814341800   -1.3089319527
     N    -3.4261404037   -8.5891037895   -1.3037988074
     C     4.1490576423   -2.3867676559    0.6489702986
     C     5.1140435230   -2.6413444772   -0.5033458704
     H     1.7039381658    1.0459515232    0.9900901179
     H     2.5967943899   -0.0629921001    2.0482944631
     H     0.9523154422   -0.4711707403    1.5234270433
     H     3.3968594194   -0.2109755299   -0.3272579099
     H     1.7864006849   -0.6205045395   -0.8704553485
     H     0.1842158861   -1.7891792372   -0.3762942008
     H    -1.4026240681   -3.5403954866   -0.8106481122
     H     1.6291525699   -6.5030585297   -0.0642581204
     H     3.2585424065   -4.7602197934    0.3286241307
     H    -0.5278035746   -7.2484887408   -0.3873143301
     H    -4.6206571680   -4.9172802921   -0.8314335913
     H    -5.3301803349   -3.0521012759   -2.5528910444
     H    -1.8063814716   -2.8697265456   -5.7984442341
     H    -1.6058960529   -1.0937016410   -8.0811726180
     H    -5.0926253349    1.4598725579   -8.2190252183
     H    -6.0322029582    0.3955884108   -6.2156733522
     H    -4.4482399543    1.4281206190  -10.0786652826
     H     4.1403777832   -3.2305868386    1.3456332216
     H     4.4806479255   -1.5195101494    1.2299163810
     H     4.8137291834   -3.5196556552   -1.0840895261
     H     6.1259613680   -2.8111777657   -0.1200565683
     H     5.1447413418   -1.7795041994   -1.1788031580
