47
-1.6645118089597659e+03 frame 48   xyz file generated by TeraChem
     C     4.8997590111   -1.7891225078    0.1741410812
     C     4.7873318439   -0.3669140758   -0.3301769211
     O     5.2146608361    0.5757968024    0.6721758602
     C     4.2944940330    0.9514425213    1.5712506196
     O     3.1576839371    0.5221269943    1.5936659360
     C     4.8176439441    1.9796546297    2.5062734762
     C     5.7768141923    2.8560727017    2.0617578986
     C     6.1786002898    3.9537916675    2.8491274861
     C     7.0810011211    4.9933787193    2.6892961696
     C     6.9942591506    5.8036103392    3.8439855103
     C     6.0494958193    5.2360572211    4.7011259841
     N     5.5602360079    4.1227156138    4.1012498415
     C     4.6334548159    3.2237165745    4.5721006131
     C     4.2359619413    2.1588511119    3.8197137781
     C     3.2850814208    1.2048217613    4.4405232010
     C     2.1114840894    1.6694481941    5.0424434112
     C     1.2418876484    0.7979082894    5.6925238008
     C     1.5549868127   -0.5549943902    5.7386113622
     C     2.7175980350   -1.0470931177    5.1507021744
     C     3.5742206035   -0.1639949662    4.5062409692
    Cl     0.4728924418   -1.6589782894    6.5488231219
     C     7.8406402336    6.9833779883    4.0901097086
     O     8.8668212991    7.1500955465    3.4369975893
     C     7.4613456917    7.9667629090    5.1462089704
     C     6.1295603211    8.2627638762    5.4608657071
     C     5.8347361887    9.2277851206    6.4207289473
     C     6.8648303852    9.8937853081    7.0813381784
     C     8.1947123043    9.6082386727    6.7678867544
     C     8.4903674968    8.6602283506    5.7966994264
     H     4.6429898635   -2.4848983923   -0.6316639151
     H     4.2150734627   -1.9614197880    1.0095557412
     H     5.9215269112   -2.0045532591    0.5022620487
     H     3.7637165914   -0.1256600248   -0.6269973837
     H     5.4580174354   -0.1869458878   -1.1731173083
     H     6.2170933068    2.7376752081    1.0778634606
     H     7.7205620366    5.1605567611    1.8341184322
     H     5.7255392234    5.5194196434    5.6919704663
     H     4.2718106041    3.4042514364    5.5779932015
     H     1.8629864860    2.7260974111    4.9907816208
     H     0.3302452502    1.1677351327    6.1508746359
     H     2.9524450174   -2.1054923090    5.2025454731
     H     4.4893849407   -0.5468619508    4.0627432467
     H     5.3222007102    7.7640903500    4.9329193373
     H     4.7986251923    9.4622109157    6.6491318913
     H     6.6326561982   10.6403939396    7.8362011212
     H     8.9992286764   10.1294394243    7.2796388094
     H     9.5202730727    8.4369614510    5.5336454003
