46
-1.1670257338793967e+03 frame 55   xyz file generated by TeraChem
     C     1.9337225512   -0.0811742418   -1.4398257756
     C     2.2902048892    0.3576027943   -0.0364742717
     O     2.9046186106    1.6605757658   -0.0386400654
     C     4.2281285332    1.7012029791   -0.2063942319
     O     4.9151974052    0.7178351885   -0.4134715468
     C     4.7710979067    3.0865202810   -0.1808794759
     C     5.8771333120    3.2938635857   -0.9681229448
     C     6.4197596323    4.5806003799   -1.1448679812
     C     7.4758190118    5.1083922025   -1.8717636126
     C     7.4857879558    6.5013904939   -1.6391650353
     C     6.4347460318    6.8064876894   -0.7740185181
     N     5.7908218446    5.6498125554   -0.4790462538
     C     4.7139331902    5.4441626511    0.3486013089
     C     4.1784352387    4.2016744481    0.5280471247
     C     3.0766590206    4.0843704046    1.5155931734
     C     1.9656272609    4.9655653656    1.4343752358
     C     0.9605143061    4.9232312181    2.3687425831
     C     1.0043808698    3.9995387611    3.4420532839
     C     2.1179549996    3.1099060386    3.5336525976
     C     3.1390564982    3.1794785041    2.5564863994
     C     2.1708199592    2.1853169119    4.6097067685
     C     1.1664356630    2.1418478091    5.5462544597
     C     0.0618699488    3.0218212501    5.4527303352
     C    -0.0167796512    3.9291328600    4.4235398310
     C     8.4462036468    7.4514383430   -2.2246785386
     O     9.3189298447    7.0633049529   -2.9898762339
     C     8.3135939804    8.9068847422   -1.8546843131
     H     1.4026198987   -1.0382067047   -1.4005820941
     H     2.8338442013   -0.2112971112   -2.0475057775
     H     1.2826026973    0.6539138369   -1.9233172914
     H     2.9689232664   -0.3502868948    0.4450547039
     H     1.3992920835    0.4808539779    0.5834961380
     H     6.3259834944    2.4592580727   -1.4968033238
     H     8.1597983980    4.5561580175   -2.5006368494
     H     6.1056137125    7.7470984272   -0.3554013989
     H     4.3472903734    6.3219838092    0.8684104689
     H     1.9111412814    5.6684565814    0.6071809617
     H     0.1114459655    5.5984167137    2.2908067309
     H     3.9897905468    2.5073558113    2.6468112381
     H     3.0210605162    1.5103915806    4.6777031494
     H     1.2165901088    1.4291452203    6.3651624719
     H    -0.7251941647    2.9766122428    6.2007319010
     H    -0.8627591210    4.6084688779    4.3466711786
     H     7.3245571204    9.2856619400   -2.1376617837
     H     9.0851150649    9.4858800703   -2.3654688132
     H     8.4133663432    9.0396931812   -0.7710782370
