58
-1.4900430033951275e+03 frame 43   xyz file generated by TeraChem
     C     2.0546262078   -1.8104191021   -1.7873517011
     O     2.6767343402   -1.2040237823   -0.6685759381
     C     3.0930596595   -2.0116977807    0.3362353887
     C     2.9675594301   -3.4004272076    0.3285181431
     C     3.4148768924   -4.1728265722    1.4029564554
     C     4.0107268233   -3.5449761247    2.5084462185
     C     4.1423589534   -2.1560744088    2.5152448524
     C     3.7024715968   -1.3848351059    1.4383539930
     C     3.8354931399    0.0975621036    1.4977816279
     C     4.6361104913    0.9032541572    0.7514549684
     C     5.6192158097    0.5859151248   -0.2667794360
     C     6.2031626808    1.6615510220   -0.9566898708
     C     7.1614685896    1.4750955795   -1.9443750603
     C     7.5714939530    0.1759601486   -2.2621832403
     C     7.0123086544   -0.9140348290   -1.5747603390
     C     6.0572372901   -0.7137946557   -0.5992012831
     O     8.4914845449   -0.1313628233   -3.1974382490
     C     9.1147775260    0.9346535459   -3.8966560226
     C     3.0076877147    0.7314375976    2.4742155995
     N     2.3243046872    1.2219723644    3.2804185590
     O     4.4185619578   -4.3585115807    3.5123836629
     C     5.0547678516   -3.7640848639    4.6303739331
     C     3.3047548018   -5.6533565428    1.3483315091
     C     2.1791172741   -6.4022925816    1.2066368759
     C     0.7769302854   -6.0211270953    1.2020735382
     C    -0.1492816834   -6.9785281489    0.7577178095
     C    -1.5150269191   -6.7272266799    0.7249575807
     C    -1.9928764425   -5.4891506690    1.1666221129
     C    -1.0863738115   -4.5261884512    1.6404289103
     C     0.2694048229   -4.7854674848    1.6558892283
     O    -3.2921735148   -5.1313266103    1.1865832083
     C    -4.2522566851   -6.0771753189    0.7425676005
     C     4.5461294065   -6.3638149214    1.3820129750
     N     5.5633497042   -6.9303700891    1.3948704824
     H     1.7941793736   -0.9935116620   -2.4615371656
     H     1.1445190253   -2.3475370728   -1.4939535485
     H     2.7372163199   -2.5004889846   -2.2976461810
     H     2.5150138134   -3.9097004553   -0.5150898252
     H     4.5997374357   -1.6500291807    3.3588146279
     H     4.5393878410    1.9700568673    0.9496823389
     H     5.8942808852    2.6755277627   -0.7129031508
     H     7.5804594152    2.3366382833   -2.4522341071
     H     7.3525723769   -1.9147452324   -1.8244246962
     H     5.6589164427   -1.5753989056   -0.0760349150
     H     9.8185528332    0.4666681802   -4.5857357276
     H     9.6573403519    1.5942986722   -3.2098429314
     H     8.3809826828    1.5189372339   -4.4634069149
     H     5.3072995508   -4.5864460468    5.3007717647
     H     4.3831555331   -3.0666701930    5.1448824136
     H     5.9703806298   -3.2387401623    4.3338803608
     H     2.3430449881   -7.4718778983    1.0796779436
     H     0.2124720405   -7.9479446037    0.4226790020
     H    -2.1915506489   -7.4948379042    0.3661542219
     H    -1.4767526303   -3.5783509809    1.9992864676
     H     0.9432384475   -4.0284846945    2.0407562972
     H    -5.2219228319   -5.5894573243    0.8474902103
     H    -4.2282534846   -6.9827302297    1.3595482910
     H    -4.0879568348   -6.3450533128   -0.3074314677
