66
-1.8610847310276322e+03 frame 87   xyz file generated by TeraChem
     C     2.4662040128   -1.3582017834    1.7329125311
     O     3.1162986942   -0.2486480648    1.1371776161
     C     3.5508752170    0.7422333723    1.9473440036
     C     3.3871438018    0.7475449274    3.3320809910
     C     3.8529136875    1.8082467921    4.1108681400
     C     4.5010110380    2.8921468088    3.4957623555
     C     4.6680617592    2.8876425918    2.1124085861
     C     4.2201069265    1.8181090654    1.3319276126
     C     4.3985396777    1.8779524972   -0.1404440397
     C     4.9486823641    0.9620896696   -0.9794334367
     C     5.6204557256   -0.2977693698   -0.6956323834
     C     5.8196159408   -1.1788882074   -1.7743218576
     C     6.4705181545   -2.3886719172   -1.6034032792
     C     6.9625727476   -2.7423790799   -0.3408461701
     C     6.7942306077   -1.8637675047    0.7381753678
     C     6.1318547892   -0.6602691308    0.5622002130
     C     7.6540782967   -4.0086852473   -0.1730697057
     N     7.9416392732   -4.9001462874   -1.0718422762
     N     8.6042581886   -5.9198696164   -0.4176854043
     C     8.6739685348   -5.5792597536    0.8306255089
     O     8.0896576201   -4.3784544086    1.0561261779
     C     9.2779081116   -6.3093778350    1.9622357842
     C     3.9119482144    3.0792763865   -0.7504528113
     N     3.5184373219    4.0656021000   -1.2267807410
     O     4.9167131299    3.8849322550    4.3166735882
     C     5.5825024825    4.9931289472    3.7342995071
     C     3.7074270127    1.7616469961    5.5876755972
     C     2.5648026255    1.6320082937    6.3068732044
     C     1.1744764218    1.6518981719    5.8640628771
     C     0.7347574329    2.2358688577    4.6618507938
     C    -0.6093018342    2.2498087634    4.3341560096
     C    -1.5551522386    1.6758852374    5.1965619913
     C    -1.1337164823    1.1028327758    6.4012526059
     C     0.2131566301    1.1043527100    6.7302759736
     C    -2.9606921137    1.7021298165    4.8305352221
     N    -3.5070858278    2.1574555984    3.7445613657
     N    -4.8679319834    1.9620156971    3.8764103218
     C    -5.0545362896    1.4022077831    5.0300221953
     O    -3.8866741814    1.2087944527    5.6885783354
     C    -6.3164534437    0.9804382113    5.6688261587
     C     4.9340666446    1.7794210569    6.3287147466
     N     5.9362655347    1.7774788509    6.9195321103
     H     2.2095234895   -2.0268453860    0.9105640766
     H     1.5520956636   -1.0499839380    2.2540534209
     H     3.1306930116   -1.8781832062    2.4328825365
     H     2.8930371807   -0.0786155777    3.8308226968
     H     5.1643730697    3.7159263893    1.6179894157
     H     4.9007025343    1.2072849208   -2.0391982072
     H     5.4491083835   -0.9055679422   -2.7590528036
     H     6.6080601396   -3.0630688989   -2.4426847438
     H     7.1898573474   -2.1223074593    1.7154446248
     H     6.0327411942    0.0131266622    1.4060326197
     H     9.7173259003   -7.2373385992    1.5931221355
     H     8.5213062649   -6.5455423783    2.7178225734
     H    10.0568680076   -5.7062166891    2.4397431771
     H     4.9322351352    5.5161391233    3.0234115886
     H     6.5037785935    4.6812905189    3.2284765347
     H     5.8284095424    5.6597714435    4.5615030766
     H     2.6884243500    1.4946780851    7.3800026084
     H     1.4476604714    2.7013117504    3.9907972057
     H    -0.9411053546    2.7129760655    3.4101618230
     H    -1.8584698000    0.6657114856    7.0807883588
     H     0.5337554138    0.6703313336    7.6738929367
     H    -7.1500972303    1.2265852849    5.0094074345
     H    -6.4515099390    1.4913618559    6.6276912220
     H    -6.3121512570   -0.0982658284    5.8568517912
