73
-1.7286687576310942e+03 frame 78   xyz file generated by TeraChem
     C     2.5431243474   -0.0741430856   -0.5876690760
     O     3.8391140051    0.2685482084   -0.1256754633
     C     4.1127248013    1.5717659642    0.0964328477
     C     3.2117608550    2.6209385601   -0.1188735554
     C     3.6030823257    3.9284298573    0.1428948118
     C     4.8897658352    4.2213688958    0.6215745149
     C     5.7843246826    3.1526808043    0.8339663798
     C     5.4018356783    1.8505918778    0.5752962195
     C     5.2836551800    5.5604354317    0.8828489065
     C     5.6316892671    6.7069636947    1.1069343032
     C     6.0313145516    8.0439711397    1.3593757252
     C     7.3039582145    8.3308057033    1.8579148482
     C     8.3384971053    7.2796636982    2.0288530062
     C     9.6731226742    7.5411140448    2.1940573751
     C     9.8802378490    8.9939073991    2.1506464161
     C     8.9156387208    9.5816306197    2.9165265470
     C     7.6385231457    9.7029473406    2.1808802409
     C     6.7815041803   10.7500954877    1.9181735053
     C     5.4986063364   10.4755171838    1.3216439488
     C     5.1148712218    9.1222905880    1.0733196771
     C     3.8355303565    8.8581676492    0.5335968650
     C     2.9825905353    9.9000879965    0.2446868055
     C     1.6291057771    9.9051558997   -0.3098883535
     C     0.8039670084    8.8515978448   -0.7019708696
     C    -0.4623030440    9.1451791799   -1.2029839226
     C    -0.8944219293   10.4700895956   -1.3098052690
     C    -0.0663185726   11.5241929701   -0.9174245880
     C     1.1969460310   11.2381907614   -0.4156585699
     C     2.2658144197   12.2053051540    0.0686764213
     C     3.3696085953   11.2448909333    0.4795545923
     C     4.6029104680   11.5260693405    1.0102407419
     C     2.7317373062   13.1355466555   -1.0615288967
     C     1.7732132578   13.0399762888    1.2604055752
     C     7.1653884910   12.0738707602    2.2542082659
     C     7.5061033880   13.2039565500    2.5549484135
     C     7.9137904123   14.5160870218    2.9156124489
     C     7.1072896780   15.6333344394    2.6193967779
     C     7.5075312146   16.9069786993    2.9760891981
     C     8.7257394174   17.1064957567    3.6428804373
     C     9.5387402921   16.0078619399    3.9439720937
     C     9.1315594409   14.7300893811    3.5800780298
     O     9.0251938455   18.3873097321    3.9503328049
     C    10.2271279871   18.6387905747    4.6589791440
     H     2.5371486700   -1.1607587667   -0.6807905114
     H     2.3383785605    0.3777848394   -1.5652888006
     H     1.7721269120    0.2368621172    0.1268665517
     H     2.2102865002    2.4312402441   -0.4890213174
     H     2.9004631473    4.7394933353   -0.0261229041
     H     6.7840673897    3.3589992407    1.2049001460
     H     6.0875261124    1.0240731193    0.7370015467
     H     8.0109618781    6.2551239518    1.8582179331
     H    10.4193876989    6.7541746439    2.0902240702
     H    10.1340587996    9.4110574514    1.1707450083
     H     8.7445966446    9.0696223024    3.8709364512
     H     3.5441590443    7.8276175828    0.3503212383
     H     1.1391609933    7.8203986479   -0.6191142704
     H    -1.1200705138    8.3375105656   -1.5132694049
     H    -1.8853424303   10.6818146759   -1.7031618066
     H    -0.4117180412   12.5520047379   -1.0053842859
     H     4.9141055505   12.5498402105    1.2034229612
     H     3.0887405121   12.5629037827   -1.9238310582
     H     3.5462872488   13.7800130944   -0.7125400068
     H     1.9068228246   13.7779289479   -1.3898879079
     H     1.4472945062   12.3979265199    2.0851125557
     H     0.9305793723   13.6718765405    0.9582629143
     H     2.5745782151   13.6926028913    1.6245201462
     H     6.1615482499   15.4875808818    2.1054624062
     H     6.8894103985   17.7709962694    2.7505232345
     H    10.4847949882   16.1369022942    4.4581152137
     H     9.7650136070   13.8796843218    3.8151477085
     H    10.2594398095   19.7173089069    4.8181418779
     H    11.1039962866   18.3294905472    4.0780026421
     H    10.2312936934   18.1253383628    5.6274757383
