64
-1.9326171016299327e+03 frame 89   xyz file generated by TeraChem
     C     1.4291685968    1.2328412578   -1.2354522888
     O     2.4830183098    0.5331489536   -0.5958876789
     C     3.2634987410   -0.2688738101   -1.3531198040
     C     3.1360183813   -0.4192764806   -2.7385192374
     C     3.9914947227   -1.2773382469   -3.4191592065
     C     4.9844831825   -2.0024899707   -2.7428376881
     C     5.1007671244   -1.8374071118   -1.3480982371
     C     4.2556068542   -0.9831665294   -0.6651975077
     C     5.8485457994   -2.8841104251   -3.4478520817
     C     6.5842703668   -3.6406869527   -4.0547327147
     C     7.4377074267   -4.5275797023   -4.7663981615
     C     8.3060469280   -5.3950682739   -4.0807188230
     C     9.1296880481   -6.2649302124   -4.7787177413
     C     9.1193946949   -6.2935625303   -6.1805288436
     C     8.2582108183   -5.4240560481   -6.8651868271
     C     7.4277180513   -4.5573102609   -6.1720393679
     C     9.9940639182   -7.2227987253   -6.9228665325
     C    10.1538002007   -8.5591887226   -6.5505320192
     F     9.5057458465   -9.0499921305   -5.4875715195
     C    10.9678753760   -9.4339318161   -7.2544981180
     F    11.0426494356  -10.6930843331   -6.8052438698
     C    11.6917129639   -9.0410393736   -8.3823571120
     C    11.5320447529   -7.7036865154   -8.7541523516
     C    10.7162066457   -6.8298051583   -8.0517628859
     F    10.6513831046   -5.5662707793   -8.4895205657
     F    12.1689807044   -7.2171427768   -9.8256742184
     C    12.5662246557   -9.9688605381   -9.1265158537
     C    12.1493232505  -11.2770315722   -9.4118852958
     C    12.9686384115  -12.1444586111  -10.1178359204
     C    14.2385400355  -11.7307720609  -10.5575973015
     C    14.6584221100  -10.4211400889  -10.2653909866
     C    13.8332588671   -9.5563018233   -9.5637944760
     C    15.0806021385  -12.6158654714  -11.2845977726
     C    15.8042929234  -13.3681706223  -11.9110302506
     C    16.6510488820  -14.2428047003  -12.6448987479
     C    17.9307189239  -13.8317064664  -13.0484328166
     C    18.7661411233  -14.6775335040  -13.7682724678
     C    18.3290655895  -15.9646425717  -14.1008429815
     C    17.0521899754  -16.3886451636  -13.7033265163
     C    16.2268849965  -15.5423894732  -12.9872291711
     O    19.0572490666  -16.8645618226  -14.7967394069
     C    20.3574690881  -16.4875235475  -15.2172689774
     H     0.9139772713    1.7827338952   -0.4468736805
     H     0.7284279024    0.5407901138   -1.7171373239
     H     1.8137636597    1.9392378357   -1.9806092340
     H     2.3786030598    0.1239132251   -3.2927755236
     H     3.8885381814   -1.3912357847   -4.4943868195
     H     5.8635871836   -2.3896129428   -0.8070712871
     H     4.3407491414   -0.8535337367    0.4097140538
     H     8.3291000413   -5.3794935032   -2.9952666146
     H     9.7955872908   -6.9224118636   -4.2293656118
     H     8.2276067096   -5.4353694830   -7.9497684489
     H     6.7594347706   -3.8962069829   -6.7154043234
     H    11.1708571387  -11.6149000477   -9.0873075876
     H    12.6296372886  -13.1520365886  -10.3386927510
     H    15.6390507275  -10.0896021827  -10.5930786791
     H    14.1796405295   -8.5518300047   -9.3445541473
     H    18.2735664245  -12.8332781205  -12.7930763810
     H    19.7486901883  -14.3270673645  -14.0642028785
     H    16.7295540718  -17.3908490257  -13.9698008977
     H    15.2399754293  -15.8785660840  -12.6832137831
     H    20.7609400184  -17.3504676069  -15.7484600994
     H    20.9998690310  -16.2522529662  -14.3606273264
     H    20.3228735490  -15.6258114656  -15.8943523535
