91
-3.5337656410270893e+03 frame 69   xyz file generated by TeraChem
     C     2.2139953588    4.4457985097   -6.7592011922
     O     2.6394183533    5.4012015062   -5.8044960417
     C     3.9385154986    5.3776885604   -5.4201634709
     C     4.8917893307    4.4773934563   -5.9007927808
     C     6.2021613500    4.5480500160   -5.4265832155
     C     6.5855332853    5.5002100698   -4.4859021654
     C     5.6177468967    6.3954994199   -4.0122060911
     C     4.3114974388    6.3372541606   -4.4684660248
     C     8.0232810826    5.5974823287   -4.0309156828
     C     8.7785043793    6.8171781231   -4.6020133618
     C     9.2568763760    7.5189213833   -3.3575522216
     N     8.8803101577    6.9325744425   -2.2710089621
     N     8.1498120651    5.8310419821   -2.5802380631
     C     7.8076068739    4.9228403280   -1.5987173029
     C     7.3420595067    3.6402574046   -1.9465025760
     C     7.0183553442    2.7145173265   -0.9640427439
     C     7.1381855566    3.0267990782    0.3872406543
     C     7.5783923078    4.3061070034    0.7162837707
     C     7.9094897593    5.2598378545   -0.2386096525
     S     7.5786251796    4.7478625482    2.4445754886
     O     6.5235273042    5.7466659048    2.6732791650
     O     7.5227733446    3.4988893291    3.2196998583
     C     9.1496491414    5.5340132806    2.7457373055
     C    10.3255163399    4.9685092287    2.2539665359
     C    11.5232829687    5.5943994755    2.5864690165
     C    11.5483801944    6.7245047704    3.3963434329
     C    10.3540614566    7.2658486086    3.9040327028
     C     9.1352768103    6.6599884702    3.5543836602
     N    10.3767004418    8.3612384808    4.7401883056
     N     9.2283282758    8.8438953692    5.2757581039
     C     9.4992427277    9.8539921187    6.0331623271
     C    10.9765710333   10.1454259657    6.1082107886
     C    11.5461619309    9.2136897193    5.0155582271
     C    12.0218571477    9.9479819506    3.7809590254
     C    13.3812289628   10.1403913124    3.5491128696
     C    13.8384539750   10.8581266189    2.4430577945
     C    12.9137511024   11.3929898612    1.5440197141
     C    11.5427361919   11.2051624311    1.7661199798
     C    11.1071345600   10.4914180153    2.8698481989
     O    13.2375472538   12.0943288573    0.4289502712
     C    14.6117617090   12.3097626219    0.1596381687
     C     8.4609923011   10.5765276079    6.7574090332
     C     7.1046581132   10.2405433767    6.6104513885
     C     6.1212061465   10.9238132525    7.3081179365
     C     6.4911704801   11.9589158908    8.1665524096
     C     7.8244227861   12.3154390986    8.3319288798
     C     8.8021654250   11.6226944696    7.6256144805
    Cl     5.2571053623   12.8211430135    9.0464506264
     C    10.0679808238    8.7307226574   -3.3546725798
     C    10.3980816444    9.3522742732   -4.5674010764
     C    11.1842840954   10.4988573590   -4.5965081531
     C    11.6494229755   11.0270759467   -3.3983853430
     C    11.3411090456   10.4309250651   -2.1759849818
     C    10.5517951066    9.2907888936   -2.1603547207
    Cl    12.6402333362   12.4625418773   -3.4239125304
     H     1.1536204258    4.6401513072   -6.9261188716
     H     2.3428367497    3.4230679795   -6.3846127033
     H     2.7584057077    4.5563361108   -7.7048231546
     H     4.6288135447    3.7211167835   -6.6323195190
     H     6.9374376110    3.8390337749   -5.8025980261
     H     5.8918357642    7.1433428069   -3.2715426951
     H     3.5574787987    7.0270103676   -4.0998866848
     H     8.5477489247    4.6693385187   -4.2917769141
     H     8.1161782957    7.4593762779   -5.1937834904
     H     9.6111685411    6.5222380181   -5.2489370661
     H     7.2383467282    3.3620132747   -2.9890328750
     H     6.6736247233    1.7279223799   -1.2606710709
     H     6.8984163822    2.3091740623    1.1636108025
     H     8.2499551866    6.2491898015    0.0468341559
     H    10.3073015637    4.0845263013    1.6246238925
     H    12.4610048452    5.1947219943    2.2108536388
     H    12.5007523062    7.1860167061    3.6330258927
     H     8.1982646495    7.0705761133    3.9100260782
     H    11.3653010993    9.8968209038    7.1033781690
     H    11.2140717138   11.1948466475    5.9117581998
     H    12.3622352012    8.6016140382    5.4133952561
     H    14.1092784659    9.7218359701    4.2414280033
     H    14.9050186624   10.9834047970    2.2917912315
     H    10.8343981498   11.6285633153    1.0594057267
     H    10.0400561242   10.3473259727    3.0218783906
     H    14.6479500237   12.8750523297   -0.7723303620
     H    15.1465437054   11.3610819127    0.0317682112
     H    15.0861011110   12.8898747552    0.9601796772
     H     6.8252845526    9.4341628666    5.9394742392
     H     5.0752638630   10.6593458796    7.1893420977
     H     8.0972264671   13.1229766992    9.0037135797
     H     9.8426894182   11.9041582147    7.7593868425
     H    10.0392552701    8.9417939553   -5.5066987042
     H    11.4325704363   10.9739538145   -5.5401747028
     H    11.7249556066   10.8548760230   -1.2533223229
     H    10.3101845832    8.8196474627   -1.2123682077
