72
-2.0145437134994836e+03 frame 143   xyz file generated by TeraChem
     C     1.6077521807   -1.3489249869   -0.2384912508
     O     2.3459752806   -0.1261586565   -0.2591158586
     C     2.7733768053    0.2524957915   -1.5017029869
     C     1.9534527422    1.0108533147   -2.3176883804
     C     2.4451237098    1.4549941691   -3.5719553828
     C     3.6943279985    1.0997242945   -4.0092288767
     C     4.5291323841    0.2768936166   -3.2109147058
     C     4.0824855463   -0.1209159137   -1.9168908282
     C     4.9483946882   -0.8538979441   -1.0684898817
     C     6.2127837290   -1.1741577859   -1.4873539947
     C     6.6691920630   -0.8202059850   -2.7835938935
     C     5.8242974541   -0.1359796630   -3.6415547334
     O     6.2795886885    0.2229418364   -4.8784565632
     C     5.6815100867   -0.4584904450   -5.9868523417
     C     8.0393956295   -1.2141406215   -3.2031056747
     C     9.2012598822   -0.9161722275   -2.5694808782
     C     9.4334526502   -0.0271180452   -1.4356227819
     C    10.5913927688   -0.2380707880   -0.6657015122
     C    10.8882255661    0.5721493040    0.4170086674
     C    10.0409374250    1.6394425269    0.7418011675
     C     8.9007228286    1.8803238782   -0.0360964082
     C     8.5999284386    1.0556411800   -1.1081632341
     C    10.3647861876    2.4916631994    1.8728430052
     N    11.3623912171    2.4018393865    2.6984156593
     N    11.2284935380    3.4456267938    3.5929147205
     C    10.1614705827    4.0963415499    3.2507603892
     O     9.5645222057    3.5448611058    2.1669312215
     C     9.5602081351    5.2944983701    3.8679685438
     C     8.1370485702   -2.0803302384   -4.3383219056
     N     8.2035709009   -2.7985016911   -5.2516774609
     C     0.5938771712    1.4137357726   -1.8755361237
     C    -0.5727326857    1.1947006696   -2.5332041935
     C    -0.8160214525    0.3912971852   -3.7275871860
     C    -1.9797428901    0.6536463242   -4.4729710440
     C    -2.2817473123   -0.0778549212   -5.6092585251
     C    -1.4332807551   -1.1148281049   -6.0181735539
     C    -0.2881145825   -1.4089336059   -5.2665981474
     C     0.0157247034   -0.6644257767   -4.1386475694
     C    -1.7592499416   -1.8784648591   -7.2103657472
     N    -2.7879560334   -1.7615022034   -7.9931678709
     N    -2.6362828146   -2.7094784692   -8.9859557386
     C    -1.5289662439   -3.3355555967   -8.7390855004
     O    -0.9208106630   -2.8580885686   -7.6270186162
     C    -0.8964660001   -4.4406943018   -9.4854971793
     C     0.5268355378    2.1815611321   -0.6685725880
     N     0.4804426747    2.8170655906    0.3047332876
     H     1.3323009711   -1.5220964527    0.8030593324
     H     2.2222856803   -2.1808302844   -0.6011902394
     H     0.7015749278   -1.2687292919   -0.8496497214
     H     1.8146912395    2.0960761507   -4.1812723184
     H     4.0628461664    1.4777850143   -4.9564696686
     H     4.6046855884   -1.1403505078   -0.0805156703
     H     6.8824812721   -1.7252789474   -0.8336745231
     H     6.0407077606    0.0516936607   -6.8820288240
     H     4.5897108556   -0.4075721570   -5.9495325592
     H     5.9990976463   -1.5051874213   -6.0079605575
     H    10.0968434651   -1.4055529413   -2.9492594524
     H    11.2583805377   -1.0568160468   -0.9224781247
     H    11.7784532130    0.3933107347    1.0116182742
     H     8.2516569618    2.7183353558    0.1969906085
     H     7.7237567301    1.2679510076   -1.7104023786
     H    10.1596822459    5.5918745876    4.7297256142
     H     8.5362835079    5.0864833841    4.1951455681
     H     9.5255200554    6.1212414202    3.1509021657
     H    -1.4589498756    1.6750522596   -2.1213827389
     H    -2.6469753697    1.4505484321   -4.1552612318
     H    -3.1756631637    0.1420494812   -6.1843502499
     H     0.3615550448   -2.2260447701   -5.5636466135
     H     0.8954296204   -0.9191419563   -3.5590707116
     H    -1.5117488010   -4.6827691750  -10.3533560757
     H    -0.8013496813   -5.3288884296   -8.8522557500
     H     0.1055455593   -4.1549790258   -9.8217507145
