91
-2.6148905731438863e+03 frame 114   xyz file generated by TeraChem
     C     3.4044720748   -1.6438999160   -7.0130564528
     O     3.4948820871   -0.2380347962   -6.8735596435
     C     4.7272446402    0.3056739438   -6.7251532663
     C     5.9173189978   -0.4245649901   -6.6900130397
     C     7.1289018254    0.2467425910   -6.5242931266
     C     7.1818677256    1.6327016691   -6.3980220324
     C     5.9805205314    2.3514240368   -6.4346385700
     C     4.7678337618    1.7006607314   -6.5938589738
     C     8.5150225844    2.3385712015   -6.2773477152
     C     8.9824222600    3.0101821433   -7.5886292754
     C     8.8945035521    4.4766809488   -7.2497478425
     N     8.6211486601    4.6858310961   -6.0057878526
     N     8.4639263359    3.4968983776   -5.3699400287
     C     8.2251845167    3.4550722339   -4.0145877705
     C     8.1090999192    2.2241087622   -3.3416296087
     C     7.8699436973    2.1869583424   -1.9729802197
     C     7.7413563963    3.3562821586   -1.2284562586
     C     7.8623137315    4.5658117915   -1.9099349422
     C     8.1013581154    4.6434554436   -3.2745000404
     S     7.7095432575    6.0904603801   -0.9983556385
     O     7.2356566209    7.1254816693   -1.9275393684
     O     6.9398293665    5.8038644754    0.2194705542
     C     9.3730768962    6.5059926040   -0.5113833115
     C     9.9405672542    5.8448721317    0.5744505696
     C    11.2523644780    6.1740473935    0.9112506748
     C    11.9648468178    7.1245759841    0.1938147983
     C    11.3732629045    7.7907324320   -0.8971340019
     C    10.0519717810    7.4670747541   -1.2498691832
     N    12.0711892343    8.7327888663   -1.6183184752
     N    13.3668934838    9.0087560088   -1.3235976044
     C    13.8385621910    9.8379411758   -2.1931476664
     C    12.8350773778   10.2019845487   -3.2579023845
     C    11.5437282547    9.5291685944   -2.7396868116
     C    10.4809088030   10.5125079253   -2.3001653505
     C     9.3528214854   10.7388927507   -3.0844726259
     C     8.3891563759   11.6798769157   -2.7204550354
     C     8.5540302726   12.4115871943   -1.5423512640
     C     9.6827592547   12.1887742833   -0.7417661653
     C    10.6300416239   11.2516441560   -1.1192896487
     O     7.6826136264   13.3461698331   -1.0901729022
     C     6.5104035538   13.5798377149   -1.8493483837
     C    15.2116159173   10.3286312024   -2.1312400589
     C    16.0681755849    9.9584563867   -1.0800868944
     C    17.3727490914   10.4289396455   -1.0361157280
     C    17.8511321655   11.2780950531   -2.0370774139
     C    17.0105685814   11.6513478109   -3.0827101078
     C    15.7005541289   11.1819176127   -3.1307953224
     C     9.1191175551    5.5700556561   -8.1896320358
     C     9.4413332518    5.2951279543   -9.5263295999
     C     9.6635056177    6.3317504630  -10.4290558935
     C     9.5673161968    7.6569227513  -10.0124896637
     C     9.2468798038    7.9408747589   -8.6826714280
     C     9.0248217401    6.9111415610   -7.7795944182
     H     2.3419945809   -1.8671168784   -7.1201471915
     H     3.7974629507   -2.1591014648   -6.1282189399
     H     3.9413580445   -1.9928954198   -7.9036239346
     H     5.9142044412   -1.5052443038   -6.7820528073
     H     8.0509295085   -0.3305201801   -6.4918297067
     H     5.9951877036    3.4337001870   -6.3273290185
     H     3.8332251509    2.2538187255   -6.6170769313
     H     9.2681747631    1.6280860607   -5.9187964446
     H     8.3445775770    2.7356512571   -8.4342667989
     H    10.0111678528    2.7335601321   -7.8481724403
     H     8.1939168699    1.2925750611   -3.8904457944
     H     7.7777240314    1.2227401948   -1.4809453364
     H     7.5362306051    3.3343538813   -0.1638984022
     H     8.1786477992    5.6027229971   -3.7714007988
     H     9.3769851148    5.1096705196    1.1386957005
     H    11.7306764639    5.6812948572    1.7532570855
     H    12.9853055402    7.3659735039    0.4668780808
     H     9.5491268171    7.9631720889   -2.0714570203
     H    13.1430242024    9.8059890239   -4.2328591968
     H    12.7131017633   11.2840940825   -3.3654103557
     H    11.1258678465    8.8572732084   -3.4977423809
     H     9.2133927151   10.1687297949   -4.0009892705
     H     7.5199614443   11.8259118377   -3.3523875525
     H     9.7934151319   12.7598500820    0.1757132041
     H    11.4955900359   11.0838347221   -0.4823499238
     H     5.9546553739   14.3507664410   -1.3135935368
     H     5.8968550856   12.6739304346   -1.9247112653
     H     6.7514862618   13.9390666985   -2.8571907599
     H    15.6948831028    9.3007320370   -0.3007980288
     H    18.0228793474   10.1350266378   -0.2161675430
     H    18.8729486200   11.6459219979   -1.9987332501
     H    17.3736655965   12.3115262070   -3.8658997625
     H    15.0543724350   11.4798584347   -3.9518855405
     H     9.5207497409    4.2656251716   -9.8650070002
     H     9.9121267320    6.1004072324  -11.4614146648
     H     9.7396443659    8.4658811722  -10.7172897861
     H     9.1692964512    8.9728941238   -8.3504638695
     H     8.7761798202    7.1328212857   -6.7459271776
