46
-1.1198250703711315e+03 frame 33   xyz file generated by TeraChem
     C     2.3893194147   -0.2511428055    1.8561351573
     O     2.6456548135    0.9262003449    2.6041008738
     C     3.1311676558    2.0028104923    1.9507798416
     C     3.3786145137    2.0479007226    0.5715914332
     C     3.8765313990    3.2097888982   -0.0008212388
     C     4.1443770588    4.3538002117    0.7679843705
     C     3.8878213711    4.2833277806    2.1508347627
     C     3.3905158534    3.1338213181    2.7367773200
     C     4.6672481170    5.5907303821    0.2145068587
     C     4.9643583825    5.8509982226   -1.0767476295
     C     5.4859549504    7.1283399246   -1.5283600564
     C     5.7691988270    7.3532468197   -2.8780081945
     C     6.2722554246    8.5995210638   -3.2609612833
     C     6.5852278019    8.8804625675   -4.6504166101
     C     7.0966916089   10.0571328514   -5.0708297739
     C     7.4423333365   10.4329574374   -6.4308385935
     C     7.2424085689    9.5998047805   -7.5435519035
     C     7.5906472365   10.0009108216   -8.8256374974
     C     8.1573474674   11.2670910000   -9.0278172676
     C     8.3636791622   12.1154257588   -7.9313721310
     C     8.0095396868   11.7011461339   -6.6608292728
     O     8.5335422399   11.7531330918  -10.2292049653
     C     8.3273059465   10.9448494147  -11.3758388543
     N     6.4773999661    9.5681486702   -2.3329693985
     C     6.1706560928    9.2295218793   -1.1041301272
     N     5.6973321965    8.1090691224   -0.6148162568
     I     6.5041367609   10.7822467473    0.3710424068
     H     2.0262128324   -0.9873071752    2.5742422001
     H     3.3024829735   -0.6249582774    1.3786537423
     H     1.6223718382   -0.0768845591    1.0924566837
     H     3.1843671537    1.1860121411   -0.0573421758
     H     4.0590914728    3.2201278369   -1.0718104924
     H     4.0863829854    5.1545970043    2.7709306759
     H     3.1942411870    3.0857802960    3.8038728711
     H     4.8349011481    6.3934024342    0.9319256321
     H     4.8229834627    5.1017398742   -1.8522609813
     H     5.6029156791    6.5739228993   -3.6152103830
     H     6.3844346586    8.0700964641   -5.3473251901
     H     7.2791771130   10.8177263912   -4.3122954998
     H     6.8025204451    8.6149846706   -7.4128291551
     H     7.4199401290    9.3284235569   -9.6592158701
     H     8.8019560273   13.0941618891   -8.1029646365
     H     8.1727111800   12.3679040337   -5.8172333827
     H     8.6839833868   11.5323652195  -12.2226417116
     H     7.2646590877   10.7133725678  -11.5128089064
     H     8.8993487807   10.0119324086  -11.3116986793
