172
-4.3005756369992378e+03 frame 110   xyz file generated by TeraChem
     C    -1.8402650032   -1.2727537185    4.8323245538
     O    -1.3714945170   -0.0070645018    5.2660773162
     C    -0.0976691715    0.0783759894    5.7084957014
     C     0.7906613896   -1.0030447718    5.7826402717
     C     2.0809489950   -0.8032058323    6.2539397244
     C     2.5296559738    0.4623280447    6.6631075121
     C     1.6178080790    1.5318222691    6.5811757153
     C     0.3286061299    1.3501188448    6.1137122746
     C     3.8722938948    0.7184833569    7.1606967412
     C     4.8828757791   -0.1668428259    7.2797015863
     C     6.2003257014    0.1841482968    7.7922347687
     N     6.4346908522    1.4522330378    8.1819951754
     C     7.6622550665    1.7114944883    8.6443459014
     C     7.9192457834    3.0607759522    9.0582080367
     C     8.1590065697    4.1996182218    9.4086485821
     C     8.4596250975    5.5255348067    9.8213759419
     C     7.5128411400    6.5570507902    9.6938482159
     C     7.8130681405    7.8468600318   10.1000801414
     C     9.0740751824    8.1475929431   10.6351580289
     C    10.0241927250    7.1237481096   10.7607134845
     C     9.7195503287    5.8322497571   10.3656706354
     N     9.3851021348    9.4614957635   11.0425049754
     C    10.1288013563    9.6702631505   12.2228376810
     C    11.1228326902   10.6580899113   12.2727707504
     C    11.8553056586   10.8572693511   13.4315197326
     C    11.6217956657   10.0699216363   14.5726736121
     C    10.6232613145    9.0812793333   14.5155266791
     C     9.8849218158    8.8876986730   13.3603373771
     C    12.3775106644   10.2590870766   15.7611422255
     C    13.0177095692   10.4033318777   16.7841050132
     C    13.7650714980   10.5506509555   18.0000638281
     N    14.8472524020   11.3341921083   17.9439511282
     C    15.5529702044   11.4569528535   19.0850216809
     C    16.7485163377   12.2888878548   19.0932104742
     C    17.1700504348   12.9987395980   18.0265603469
     C    18.3534434427   13.8408275671   17.9439496592
     C    19.3145988921   13.9268658304   18.9633755775
     C    20.4338763555   14.7388936127   18.8434016761
     C    20.6200757652   15.4996218257   17.6812583995
     C    19.6725634350   15.4296461310   16.6514723899
     C    18.5653864848   14.6107269826   16.7847739569
     O    21.6758175059   16.3146454465   17.4635165487
     C    22.6820035548   16.3812878385   18.4598823695
     C    15.1501952567   10.7952973854   20.2493580681
     C    13.9964566560   10.0070301941   20.2030288478
     N    13.2974668823    9.8807964149   19.0586387307
     C    13.5288672474    9.3136075818   21.3957620077
     C    12.4120440115    8.5576045105   21.4190529259
     C    11.8506575904    7.8406006671   22.5523061082
     C    10.6674163471    7.1110905570   22.3693275057
     C    10.0648506517    6.4082376689   23.4070159388
     C    10.6500605565    6.4255429995   24.6762691809
     C    11.8384749152    7.1462690260   24.8814796747
     C    12.4242042153    7.8384556008   23.8401351960
     O    10.1511970268    5.7907075987   25.7592414508
     C     8.9566713276    5.0443684737   25.5982546081
     C     8.9516272946   10.5605244611   10.2750545212
     C     8.5054378852   11.7340744700   10.9008427982
     C     8.0780996051   12.8131248879   10.1454076107
     C     8.0705207196   12.7494343345    8.7407019350
     C     8.5168526892   11.5696300171    8.1192892579
     C     8.9572078609   10.4952615298    8.8737311837
     C     7.6154498272   13.8504002003    7.9667131071
     C     7.2201688196   14.7900595541    7.3047471597
     C     6.7425090736   15.8951086436    6.5248692691
     N     6.7427405614   15.7255038235    5.1982230447
     C     6.2889745516   16.7599221245    4.4646038037
     C     6.2581196225   16.6406450955    3.0133227396
     C     6.6509982825   15.5341721035    2.3494998242
     C     6.6530457997   15.3239446691    0.9101743555
     C     6.2420755208   16.2943518009   -0.0172628153
     C     6.2563620954   16.0503396936   -1.3838002592
     C     6.6907755911   14.8073543432   -1.8633942454
     C     7.1081719455   13.8250496555   -0.9554752041
     C     7.0875419472   14.0846406020    0.4030297325
     O     6.7414567427   14.4663039307   -3.1695351037
     C     6.3229984695   15.4253338869   -4.1263608069
     C     5.8488313981   17.9345408531    5.0825191744
     C     5.8884474859   18.0086962071    6.4782179736
     N     6.3440329582   16.9730369465    7.2089855822
     C     5.4293655299   19.2102040758    7.1616779140
     C     5.4367300057   19.3490360856    8.5033060779
     C     4.9868185379   20.4969748023    9.2749207154
     C     4.4339979420   21.6524541375    8.7004914435
     C     4.0069923825   22.7206202967    9.4775314648
     C     4.1257605738   22.6575076172   10.8725115329
     C     4.6779566755   21.5151393457   11.4667911227
     C     5.0971329193   20.4589416446   10.6778910791
     O     3.7356777654   23.6369482142   11.7177142400
     C     3.1523359081   24.8022247213   11.1597754780
     N     8.6848866750    0.8583035918    8.7643624284
     C     8.4552448303   -0.4096642867    8.3728919008
     C     7.2039904630   -0.7861455304    7.8752301165
     C     9.5329205353   -1.3849163003    8.4723924003
     C    10.7555764968   -1.0852696073    8.9568728210
     C    11.8983623746   -1.9746251353    9.0914113330
     C    11.9027750971   -3.3095745021    8.6570758303
     C    13.0192001221   -4.1210259291    8.8063013251
     C    14.1774420638   -3.6075527677    9.4051120622
     C    14.1956808968   -2.2771469988    9.8443339172
     C    13.0754713789   -1.4814270351    9.6856259663
     O    15.3140405800   -4.3124767500    9.5984609548
     C    15.3464655676   -5.6581988192    9.1536247690
     H    -2.8738883842   -1.1175423615    4.5204771536
     H    -1.8109723577   -2.0084736892    5.6446078474
     H    -1.2541296161   -1.6432918055    3.9832361337
     H     0.4848612382   -1.9977039328    5.4773344531
     H     2.7483493189   -1.6590819977    6.3040299974
     H     1.9367519319    2.5241026984    6.8923331565
     H    -0.3694271654    2.1799646705    6.0521182804
     H     4.0743015221    1.7443632472    7.4670477086
     H     4.7577452661   -1.2074221851    6.9881953608
     H     6.5315548688    6.3345333972    9.2856851460
     H     7.0659742297    8.6293953353   10.0106189316
     H    11.0069707909    7.3478500624   11.1639278562
     H    10.4649076766    5.0484237302   10.4607285576
     H    11.3253258833   11.2624671512   11.3938573009
     H    12.6292466081   11.6184820078   13.4564933630
     H    10.4230621460    8.4734431483   15.3927216431
     H     9.1083257155    8.1294067535   13.3354621046
     H    17.2938237041   12.3133066181   20.0343043408
     H    16.5619015047   12.9471303964   17.1239670851
     H    19.1974372283   13.3406131057   19.8705726682
     H    21.1554868309   14.7710655384   19.6522813644
     H    19.8295994811   16.0220718063   15.7548187029
     H    17.8393060774   14.5606044287   15.9765074951
     H    23.4346028345   17.0726953138   18.0786841760
     H    23.1393596090   15.3992965430   18.6282128218
     H    22.2809638132   16.7640372545   19.4057185935
     H    15.7186714082   10.8953698374   21.1692950113
     H    14.1383682597    9.4487662464   22.2865923943
     H    11.8545505495    8.4715829219   20.4867916494
     H    10.2049111219    7.0955657303   21.3849788681
     H     9.1494341747    5.8578306381   23.2199709330
     H    12.2803322073    7.1471583899   25.8737594367
     H    13.3413496967    8.3896844488   24.0284486328
     H     8.7339829336    4.6220977837   26.5789474044
     H     9.0894459445    4.2332179145   24.8726683819
     H     8.1268256610    5.6860157238   25.2797027659
     H     8.4862026496   11.7925135408   11.9847060669
     H     7.7272506817   13.7133415021   10.6409799142
     H     8.5288881605   11.5086775004    7.0352119401
     H     9.3132946019    9.5977233096    8.3776112270
     H     5.8874695283   17.5143310264    2.4815126560
     H     7.0061259561   14.6966918904    2.9491929847
     H     5.9020581733   17.2667592847    0.3281906947
     H     5.9302597781   16.8277117593   -2.0660877833
     H     7.4434196399   12.8662575332   -1.3401290685
     H     7.4132966716   13.3136544766    1.0977399967
     H     6.4420831249   14.9478022007   -5.0996704078
     H     6.9457375565   16.3265178219   -4.0827794820
     H     5.2720337848   15.7005539128   -3.9797586839
     H     5.4819529887   18.7688024183    4.4920275369
     H     5.0683015089   20.0064413633    6.5144491555
     H     5.8175630373   18.5100687450    9.0849820938
     H     4.3262244337   21.7256666533    7.6217596074
     H     3.5821858016   23.5929967896    8.9931713244
     H     4.7645667229   21.4781055241   12.5488191992
     H     5.5212687957   19.5761997324   11.1511607832
     H     2.9121772048   25.4496387820   12.0041081058
     H     2.2344332582   24.5632101792   10.6099439965
     H     3.8532065824   25.3176957789   10.4927938242
     H     7.0161662458   -1.8079891709    7.5593756160
     H     9.2916040930   -2.3881537329    8.1280344961
     H    10.9149219721   -0.0608404580    9.2918696750
     H    11.0190197399   -3.7311388901    8.1859214795
     H    12.9816023436   -5.1465111026    8.4553171339
     H    15.0999733328   -1.8904854520   10.3051508415
     H    13.1019853384   -0.4495177644   10.0285335530
     H    16.3427254436   -6.0292044664    9.3975265715
     H    15.1875428302   -5.7227540023    8.0708422852
     H    14.5940897108   -6.2660850269    9.6696866420
