42
-9.5676915812671791e+02 frame 56   xyz file generated by TeraChem
     C     2.1104873033   -0.7474932362    0.5777196724
     O     3.4003016756   -0.2915800657    0.2063724549
     C     3.7503055536    0.9683661539    0.5501075047
     C     2.9162194218    1.8575937410    1.2422255270
     C     3.3752232923    3.1312668690    1.5483323679
     C     4.6592839826    3.5490525680    1.1798574791
     C     5.4803319346    2.6474588214    0.4864595612
     C     5.0374256544    1.3733928236    0.1725804010
     C     5.1614804447    4.8876798854    1.4968265168
     N     4.4768153260    5.7640096667    2.1199911059
     C     5.1052525111    7.0402257489    2.3725463947
     C     5.1780006474    7.3027790688    3.8796504602
     N     5.8064694198    8.5789873954    4.1321962637
     C     5.1218538143    9.4553183582    4.7554148986
     C     5.6241078694   10.7939151328    5.0724256547
     C     6.9082229576   11.2116124566    4.7040419578
     C     7.3672964285   12.4852485809    5.0102014837
     C     6.5332234105   13.3745329130    5.7022628729
     C     5.2460507483   12.9695892324    6.0797009141
     C     4.8030786453   11.6955554118    5.7657837608
     O     6.8832928309   14.6344450539    6.0460631476
     C     8.1730921250   15.0903563282    5.6746569159
     H     2.0402733583   -1.7735577934    0.2142077481
     H     1.3245021325   -0.1414121888    0.1120328871
     H     1.9826266684   -0.7364697902    1.6664537842
     H     1.9161385572    1.5641133166    1.5419403562
     H     2.7313572536    3.8232974914    2.0836469982
     H     6.4815942562    2.9544223216    0.1910945558
     H     5.6699917634    0.6719563504   -0.3634569233
     H     6.1877279569    5.0985836391    1.1542771305
     H     4.4890390084    7.8278446671    1.9176460799
     H     6.1163553292    7.1134648481    1.9392480150
     H     5.7941891580    6.5151535500    4.3345709712
     H     4.1668912374    7.2295793337    4.3129396988
     H     4.0956052099    9.2444424684    5.0979792399
     H     7.5520791870   10.5195367838    4.1687741863
     H     8.3674345780   12.7786436016    4.7105947974
     H     4.6135004197   13.6710644201    6.6157062480
     H     3.8017779969   11.3886559482    6.0610852729
     H     8.2432487489   16.1164917898    6.0379801643
     H     8.3009715099   15.0791395083    4.5859274819
     H     8.9591016334   14.4844013200    6.1404679308
