66
-1.5289591160011082e+03 frame 61   xyz file generated by TeraChem
     C     2.0158787834    0.9684113404   -0.2911266575
     O     1.9400802393   -0.4365742472   -0.4511652738
     C     2.7468862888   -1.0109368609   -1.3749685936
     C     3.6397347370   -0.3152324923   -2.1941255390
     C     4.4224729783   -1.0151316557   -3.1096163801
     C     4.3382258305   -2.4039812925   -3.2336920269
     C     3.4345452694   -3.0864605905   -2.4029012511
     C     2.6515073367   -2.4047903902   -1.4888334640
     C     5.1660240889   -3.1333156262   -4.2000966208
     C     6.0681044540   -2.6248180668   -5.1526211403
     C     6.5700142949   -3.7411131468   -5.8011489887
     N     5.9665943185   -4.8270948790   -5.2393350392
     N     5.1242110812   -4.4708285213   -4.2669546523
     C     6.1574442939   -6.2422592611   -5.5028247062
     C     7.3985125197   -6.8246552961   -4.8669752987
     C     7.9739829775   -6.2766919083   -3.7235371615
     C     9.0970355784   -6.8649931851   -3.1412135874
     C     9.6775118379   -8.0192272336   -3.6743784354
     C     9.0832787581   -8.5636245496   -4.8227603303
     C     7.9681095389   -7.9793960241   -5.4102830061
     C    10.9111254365   -8.6884107136   -3.0661090892
     C    11.4039620396   -7.9681229700   -1.8078897772
     C    10.5714400229  -10.1393842027   -2.6869701470
     C    12.0512882410   -8.6882844556   -4.0974962366
     C     7.5272579707   -3.7529992971   -6.8788192032
     N     8.0286228505   -2.7120968918   -7.4760929473
     N     8.8964905156   -3.1895347351   -8.4285830083
     C     8.8667045558   -4.4875574171   -8.3545988521
     O     8.0137431266   -4.9090934457   -7.3835335091
     C     9.5926209735   -5.4616789570   -9.1480118514
     C    10.3571532000   -5.0276852822  -10.2377949066
     C    11.0535314516   -5.9495697154  -11.0073095677
     C    11.0099321889   -7.3179539049  -10.7169025076
     C    10.2428644746   -7.7377173082   -9.6227337316
     C     9.5416210862   -6.8282131589   -8.8442040922
     C    11.7672942939   -8.3141978238  -11.5471063923
     H     1.3060233961    1.2191794897    0.4983843317
     H     1.7343500992    1.4907465265   -1.2134572610
     H     3.0225972997    1.2819171348    0.0102742716
     H     3.7357554114    0.7630436162   -2.1288539055
     H     5.1126808624   -0.4547939653   -3.7346023983
     H     3.3503401570   -4.1661659293   -2.4819368154
     H     1.9529178732   -2.9343839561   -0.8473013485
     H     6.3277564700   -1.5979953324   -5.3655277800
     H     6.1684069464   -6.4044914166   -6.5835923225
     H     5.2586475544   -6.7251376686   -5.1080086386
     H     7.5473762885   -5.3822777043   -3.2763111226
     H     9.5176545895   -6.4053054784   -2.2526973889
     H     9.5025194679   -9.4594743539   -5.2735251350
     H     7.5320846109   -8.4263596913   -6.3018991863
     H    10.6424086711   -7.9604534757   -1.0196648568
     H    11.6925552747   -6.9320242312   -2.0189559572
     H    12.2860806034   -8.4866016846   -1.4160306668
     H     9.7665213842  -10.1704689642   -1.9436862060
     H    11.4528474805  -10.6305748187   -2.2574149713
     H    10.2533317373  -10.7228773249   -3.5575643444
     H    12.3214823782   -7.6647727368   -4.3823163994
     H    11.7762858445   -9.2323115609   -5.0077923982
     H    12.9404928385   -9.1705510493   -3.6737842007
     H    10.3958376612   -3.9696149280  -10.4787198276
     H    11.6408543349   -5.6021551626  -11.8537676658
     H    10.1957415846   -8.7961510884   -9.3771572009
     H     8.9606776543   -7.1753941301   -7.9951620600
     H    12.2319181116   -7.8389691569  -12.4156209335
     H    11.1070606019   -9.1126501557  -11.9043836920
     H    12.5596902127   -8.7928142036  -10.9588415512
