63
-1.4896886291026399e+03 frame 78   xyz file generated by TeraChem
     C     3.5124463696    1.8060152039    0.7378405685
     O     3.6108141198    0.5249656636    0.1424265424
     C     4.1078470513    0.4512725575   -1.1159381386
     C     4.5228761992    1.5510276238   -1.8712126581
     C     5.0236580263    1.3549276457   -3.1558906799
     C     5.1228392392    0.0789458992   -3.7156800732
     C     4.6980866004   -1.0146174104   -2.9435964963
     C     4.1983610729   -0.8348613493   -1.6660176354
     C     5.6585936226   -0.1167611088   -5.0666254066
     C     6.1051728272    0.8495842354   -5.9870641226
     C     6.5239766311    0.1245452915   -7.0898634100
     N     6.3251080934   -1.1916748714   -6.7962512014
     N     5.7955565919   -1.3465314085   -5.5808965692
     C     6.4752459501   -2.3671735941   -7.6451929406
     C     5.3561620430   -2.5230041172   -8.6477670136
     C     5.6329986412   -2.7446692845   -9.9939571785
     C     4.6016140084   -2.9348056751  -10.9147698490
     C     3.2613976323   -2.9044862763  -10.5225238554
     C     2.9962295735   -2.6733878529   -9.1628476831
     C     4.0181733286   -2.4884427492   -8.2419332745
     C     2.1027001906   -3.1197461019  -11.4971347399
     C     2.5833529873   -3.3356083490  -12.9347201616
     C     1.3038818275   -4.3599542735  -11.0633689883
     C     1.1786412698   -1.8910323961  -11.4797629638
     C     7.0838821866    0.6503258253   -8.3102901508
     N     7.0598853078    1.8882114238   -8.7078284522
     N     7.7586200242    1.9308272824   -9.8912364547
     C     8.1570641718    0.7193066101  -10.1413248565
     O     7.7591247409   -0.1437722913   -9.1712974821
     C     8.9318326421    0.2240345053  -11.2658945975
     C     9.2885446772    1.1083872904  -12.2931121546
     C    10.0339038932    0.6492586362  -13.3710507962
     C    10.4275217650   -0.6880195027  -13.4340450702
     C    10.0740021277   -1.5678193479  -12.4123090724
     C     9.3290200700   -1.1173065510  -11.3281837011
     H     3.1022853660    1.6427774876    1.7354760433
     H     2.8393610504    2.4592627563    0.1695984913
     H     4.4960967125    2.2836335913    0.8218844456
     H     4.4639581170    2.5582781298   -1.4737642499
     H     5.3432563265    2.2241300457   -3.7244930092
     H     4.7650405953   -2.0159718287   -3.3584188879
     H     3.8710555598   -1.6819494961   -1.0698575911
     H     6.1493491802    1.9237561799   -5.8807541087
     H     6.4975026320   -3.2107088499   -6.9499224276
     H     7.4427611767   -2.3213447750   -8.1483722813
     H     6.6652184179   -2.7761578213  -10.3358041464
     H     4.8627617749   -3.1054501535  -11.9542625563
     H     1.9680227927   -2.6422216149   -8.8109341991
     H     3.7767164519   -2.3158647096   -7.1954672546
     H     3.2180229871   -4.2248753218  -13.0242843000
     H     3.1453500583   -2.4722557864  -13.3096340607
     H     1.7161552357   -3.4782882702  -13.5889505413
     H     1.9367327183   -5.2548234845  -11.0719099995
     H     0.4660983459   -4.5260022048  -11.7512169389
     H     0.8933651146   -4.2433526585  -10.0547376980
     H     1.7183092898   -0.9901977800  -11.7940262702
     H     0.7636024316   -1.7081720219  -10.4830075996
     H     0.3402500848   -2.0455418223  -12.1694702573
     H     8.9770668285    2.1470503374  -12.2375914646
     H    10.3084089249    1.3366647046  -14.1661640967
     H    11.0099144553   -1.0435326721  -14.2795696781
     H    10.3805799505   -2.6089558643  -12.4575496650
     H     9.0600899346   -1.8018289150  -10.5292540942
