92
-2.3332990028799295e+03 frame 53   xyz file generated by TeraChem
     C     1.4087883502    0.5945522766   -0.5774781758
     O     1.8670704265   -0.3335464517    0.3903742302
     C     2.7054963233    0.1184710565    1.3514845810
     C     3.1574991654    1.4374060716    1.4530635199
     C     4.0155637148    1.7932417135    2.4891915585
     C     4.4486579861    0.8626307586    3.4413784642
     C     3.9850173417   -0.4588398824    3.3168034639
     C     3.1277641634   -0.8278299457    2.2948826097
     C     5.3537543833    1.2552794539    4.5373341555
     C     5.2961437017    2.5407390200    5.0992973776
     C     6.1391763441    2.9117507915    6.1341811780
     C     7.0838723059    2.0077983680    6.6452680849
     C     7.1452108528    0.7177395527    6.0920453404
     C     6.2940372857    0.3524938348    5.0627122996
     C     7.9149498940    2.4076421445    7.7663791993
     N     9.1722666649    1.8488986146    8.0442661586
     C    10.0141693938    1.2825184065    7.0468284550
     O    10.0168737757    1.6819573097    5.9057612909
     O    10.7177829540    0.3040766098    7.5733715176
     C    11.7946168452   -0.3604055831    6.8118469536
     C    12.8410132703    0.6663788725    6.4060081937
     C    12.3557751263   -1.3392518942    7.8311920765
     C    11.1948089046   -1.0969535756    5.6228770266
     C     9.6913954292    2.3138962268    9.3119433970
     O    10.7875809847    2.0287714586    9.7503194023
     C     8.6433774994    3.1953984610    9.7907883464
     C     7.6027437262    3.2359747892    8.8173769493
     C     6.4720960129    3.9517550414    9.3760191034
     O     5.4069347497    4.2978485392    8.9058614456
     N     6.9227896971    4.2828583755   10.7098711678
     C     8.2261821936    3.8166534476   10.9436611078
     C     8.8765243732    3.8700941198   12.2404264685
     C    10.2788497123    3.8852753856   12.3086183882
     C    10.9246094931    3.8960902770   13.5344241363
     C    10.2024762756    3.8831022876   14.7385449435
     C     8.7996796525    3.8504689731   14.6612290367
     C     8.1463730936    3.8486278269   13.4405081758
     C    10.8914135662    3.8946223142   16.0422781539
     C    12.1046205394    4.5712850680   16.2163125948
     C    12.7618496718    4.5950677298   17.4428853638
     C    12.2077688954    3.9240747672   18.5369756025
     C    10.9969545625    3.2360059431   18.3811588230
     C    10.3530423034    3.2268986349   17.1563048075
     O    12.7576835873    3.8833223811   19.7725263254
     C    13.9677810679    4.5894362215   19.9836816966
     C     6.3095867106    5.3212467349   11.4646606217
     O     6.9453409274    6.2243797122   11.9555608930
     O     5.0136402071    5.1044013558   11.5252981767
     C     4.0825037051    6.1296296275   12.0347068140
     C     4.2222978910    7.3956467254   11.2025213276
     C     2.7279935447    5.4758328147   11.8096313948
     C     4.3392970563    6.3620715136   13.5163041995
     H     0.7503249112    0.0337265345   -1.2421373247
     H     2.2422494830    1.0109039593   -1.1556679165
     H     0.8465087943    1.4114778961   -0.1099615330
     H     2.8567622781    2.1884282610    0.7307280588
     H     4.3730930946    2.8185182541    2.5361540609
     H     4.2781041250   -1.2051243648    4.0503581050
     H     2.7617501570   -1.8471896204    2.2124329919
     H     4.5617117668    3.2545272784    4.7373042066
     H     6.0620110950    3.9048632097    6.5636546435
     H     7.8408536650   -0.0170259008    6.4864989070
     H     6.3718769869   -0.6476775099    4.6461460831
     H    13.1864351298    1.2228949778    7.2835313726
     H    12.4508027323    1.3688774757    5.6666071153
     H    13.6991018886    0.1450934284    5.9695511571
     H    12.7406146635   -0.8078476164    8.7073143371
     H    13.1744701576   -1.9084193425    7.3803550492
     H    11.5818947687   -2.0416036507    8.1567121522
     H    10.7823374154   -0.4019954370    4.8891541285
     H    10.4059761798   -1.7786245130    5.9579990352
     H    11.9786309736   -1.6907979064    5.1413077013
     H    10.8591246358    3.8771174771   11.3920905954
     H    12.0106231904    3.8911222485   13.5583525694
     H     8.2098727841    3.8465115895   15.5733582062
     H     7.0616080538    3.8004045353   13.4227362948
     H    12.5392952577    5.1195962730   15.3847000879
     H    13.6930483910    5.1432010923   17.5363056106
     H    10.5822079650    2.7086834941   19.2354110397
     H     9.4259026829    2.6691865269   17.0547629565
     H    14.2249454257    4.4356496891   21.0325250404
     H    13.8413190678    5.6615474792   19.7917904656
     H    14.7730625108    4.1992957229   19.3499027374
     H     4.1161936381    7.1599560026   10.1385612982
     H     5.1857424018    7.8828238972   11.3678812389
     H     3.4284732717    8.0951600017   11.4831977991
     H     2.5807013530    5.2544758083   10.7480642064
     H     1.9348568189    6.1527436866   12.1411178916
     H     2.6506144474    4.5435802180   12.3781437657
     H     5.3108679392    6.8309783733   13.6827391681
     H     4.2989799991    5.4130668756   14.0609983566
     H     3.5589618624    7.0190612777   13.9141415425
