48
-1.4735367113048846e+03 frame 69   xyz file generated by TeraChem
     C     2.8208919559    1.7898005840    0.1209471967
     O     2.9942250576    0.3872325955    0.2256012101
     C     3.5016004344   -0.2702968146   -0.8415001425
     C     3.8806009604    0.3399322169   -2.0441206750
     C     4.3811636762   -0.4335988043   -3.0834402339
     C     4.5216498535   -1.8252452574   -2.9674640480
     C     4.1424267973   -2.4124029659   -1.7454678235
     C     3.6413746349   -1.6567059888   -0.7002624877
     C     5.0242823205   -2.6878982769   -4.0298240931
     C     5.3753830851   -2.2923213342   -5.2734274485
     C     5.8647650897   -3.1194027341   -6.3617556734
     C     6.0887644058   -4.5040367228   -6.3279232544
     F     5.8616084782   -5.2019794655   -5.2050091898
     C     6.5476109654   -5.2181024904   -7.4208157764
     F     6.7154507671   -6.5382135288   -7.2503179329
     C     6.8294234479   -4.6196139209   -8.6580223383
     C     6.6099817368   -3.2336635063   -8.6891143896
     C     6.1519547399   -2.5208828291   -7.5983434215
     F     5.9785172884   -1.1992981393   -7.7494828741
     F     6.8439797617   -2.5531160949   -9.8210133104
     C     7.3037454790   -5.2864992059   -9.8571851344
     C     7.5538720114   -6.6038461135  -10.0255999194
     C     8.0196447976   -7.2357948509  -11.2539711024
     C     8.2866115964   -6.5418965619  -12.4444483530
     C     8.7195416837   -7.1957244164  -13.5907472952
     C     8.9002142232   -8.5848483161  -13.5745526683
     C     8.6451617365   -9.2971618719  -12.3958499900
     C     8.2139208058   -8.6300953374  -11.2628462748
     O     9.3123255823   -9.3163847944  -14.6343220470
     C     9.5656430125   -8.6350619448  -15.8510126682
     H     2.4019503383    2.1110543860    1.0754836622
     H     2.1254590130    2.0459340185   -0.6872220636
     H     3.7773965105    2.2987026268   -0.0472796151
     H     3.7878411698    1.4121263867   -2.1786688226
     H     4.6674050805    0.0686638665   -4.0034120670
     H     4.2426032314   -3.4885297532   -1.6221885386
     H     3.3470972975   -2.1197290088    0.2371715670
     H     5.0990871679   -3.7371504882   -3.7618329508
     H     5.2875957884   -1.2414550340   -5.5343850333
     H     7.4575157977   -4.6114547364  -10.6944153410
     H     7.4009304727   -7.2871471682   -9.1959557065
     H     8.1566411197   -5.4640922120  -12.4883435860
     H     8.9130124506   -6.6190368511  -14.4886794309
     H     8.7901944501  -10.3736255902  -12.3927681142
     H     8.0180237405   -9.1968509164  -10.3551983586
     H     9.8675695359   -9.4018739768  -16.5656046356
     H    10.3745491431   -7.9037747910  -15.7368634407
     H     8.6654022054   -8.1282072824  -16.2181598171
