44
-1.1279587133198002e+03 frame 59   xyz file generated by TeraChem
     C     1.4142685199    1.3603860426   -0.1830341775
     C     1.6420817117    0.0203152379    0.4816881471
     O     2.4593909407    0.1579080671    1.6601093977
     C     3.7813991658    0.1227276970    1.4811078632
     O     4.3150567070    0.0335488143    0.3906372978
     C     4.5442245170    0.2709994715    2.7504510291
     C     5.7552255390    0.9076792730    2.6293546829
     C     6.5307209655    1.2270507256    3.7598338099
     C     7.7412471387    1.8706877413    3.9687500250
     C     7.9683483989    1.8870031601    5.3623284371
     C     6.8930284136    1.2531687403    5.9863752789
     N     6.0262413366    0.8587987854    5.0209452487
     C     4.8416522059    0.1729352360    5.1465860891
     C     4.0744417478   -0.1337961312    4.0600099054
     C     2.8505460359   -0.9350494943    4.3016826262
     C     1.9362845546   -0.5543413421    5.2848932231
     C     0.8070559899   -1.3211226339    5.5705535037
     C     0.5786206796   -2.5011089072    4.8605305372
     C     1.4911162836   -2.9001114207    3.8736575246
     C     2.6067597043   -2.1272381285    3.6013860202
     O    -0.4865183792   -3.3177757223    5.0502466190
     C    -1.4471073826   -2.9299647486    6.0156087349
     C     9.1426274895    2.4801404691    6.0224882875
     O    10.0227889875    3.0185503416    5.3645284477
     C     9.2211993786    2.3993286175    7.5259513639
     H     0.7339356049    1.2375644549   -1.0324302850
     H     2.3563136015    1.7754772503   -0.5527836792
     H     0.9647978935    2.0705202848    0.5181897817
     H     2.1204136966   -0.6882293617   -0.1987438524
     H     0.7079130480   -0.4087719493    0.8507520113
     H     6.1128852078    1.2045802531    1.6488074806
     H     8.3864712939    2.2848938305    3.2068063570
     H     6.6882867400    1.0583423857    7.0296127670
     H     4.5799615958   -0.1309774629    6.1536347162
     H     2.0954342567    0.3716945959    5.8317882629
     H     0.1161641236   -0.9849165385    6.3357640519
     H     1.3067858769   -3.8251339201    3.3347795835
     H     3.3099423149   -2.4604405501    2.8420890043
     H    -2.2159003852   -3.7039769735    6.0030221027
     H    -1.8986384587   -1.9631160298    5.7624597957
     H    -1.0056169151   -2.8723313919    7.0179245690
     H     9.2230622704    1.3528864038    7.8529711028
     H     8.3490869110    2.8804341622    7.9836107302
     H    10.1327395654    2.8901209584    7.8719251047
