149
-4.4359006408666337e+03 frame 117   xyz file generated by TeraChem
     C    -0.8373689928    0.3019290996   -1.1456495997
     N    -0.4454331907   -1.0520473684   -0.7885981768
     C     0.8772614882   -1.2654565777   -0.3563451378
     C     1.6878600826   -0.2020583623    0.0569500341
     C     3.0063934371   -0.4155166610    0.4444007354
     C     3.5261841300   -1.7074148469    0.4812146244
     C     2.7146880463   -2.7843171968    0.1192263660
     C     1.4168815666   -2.5619742861   -0.3233236284
     S     0.4607311338   -3.9178362823   -0.9303476669
     C    -1.1380074776   -3.3528365491   -0.4274572450
     C    -1.4358015997   -1.9732729914   -0.4828159970
     C    -2.7615408369   -1.5783845420   -0.2266483176
     C    -3.7476904107   -2.5035402678    0.0611625121
     C    -3.4541059587   -3.8796716005    0.1348327094
     C    -2.1164748096   -4.2712414724   -0.1057484439
     C    -4.3746197516   -4.9467507982    0.4245473067
     C    -5.7114271715   -5.0250770276    0.7008423925
     S    -6.4462727086   -6.6127040648    0.9765979652
     C    -8.0316659548   -5.9480273729    1.2181999295
     S    -9.3620361081   -6.8676651261    1.5457121348
     N    -7.9826324086   -4.5812701094    1.0860496187
     C    -6.7371545313   -4.0029670670    0.8380808200
     O    -6.6246877432   -2.7773070265    0.7807795573
     C    -9.1724698911   -3.7424858876    1.1351065860
     C    -9.3441564363   -2.9987766810    2.4598697333
     O   -10.3233660606   -3.1299545062    3.1537967973
     O    -8.3606719952   -2.1642957205    2.7900734157
     N     4.8631256955   -1.9403453331    0.8808463984
     C     5.4317026518   -1.5634987442    2.0910583966
     C     4.8584050415   -0.8955271297    3.1734634402
     C     5.6618475899   -0.6355003944    4.2742869957
     C     7.0038204396   -1.0585885827    4.3192868014
     C     7.5642946320   -1.7485962039    3.2484799125
     C     6.7792788506   -1.9911761520    2.1211458250
     C     7.0320969780   -2.6542989344    0.8649183144
     C     5.8266383405   -2.5983768352    0.1276664704
     C     5.7376831354   -3.1181865172   -1.1642398608
     C     6.8688062676   -3.7164385031   -1.6998826636
     C     8.0749896051   -3.7790812005   -0.9778950581
     C     8.1652405405   -3.2437627623    0.3033063411
     N     9.2093112303   -4.3890721190   -1.5700434532
     C     9.8845601840   -5.5012246386   -1.0845723064
     C     9.6142910386   -6.2855837276    0.0367427242
     C    10.4491831042   -7.3652144975    0.2849727446
     C    11.5445576200   -7.6965515883   -0.5444535078
     C    11.7900828033   -6.8991315406   -1.6606046585
     C    10.9660369926   -5.8026330976   -1.9400299754
     C    10.9441055638   -4.8148133257   -2.9960238956
     C     9.8452937698   -3.9647541730   -2.7292699894
     C     9.5570894478   -2.8831863192   -3.5562638920
     C    10.3794796762   -2.6690148447   -4.6580426851
     C    11.4795857529   -3.4956312848   -4.9601883217
     C    11.7487004948   -4.5724411088   -4.1103819735
     C    12.3816734553   -3.2466760390   -6.1738376326
     C    11.9459411830   -2.0240649384   -6.9863901840
     C    13.8262670153   -3.0137934994   -5.7012841623
     C    12.3487525074   -4.4721187178   -7.1018458739
     C    12.4079891972   -8.9094720261   -0.1875642638
     C    11.5321858020  -10.1732206560   -0.1598702517
     C    13.5406944006   -9.1348831115   -1.1928639438
     C    13.0375018678   -8.7004183236    1.1997016365
     N     7.7896668147   -0.7698462097    5.4608022368
     C     7.4796976807   -1.1068409432    6.7743360145
     C     6.3853191165   -1.7978733500    7.2868993882
     C     6.3329249607   -2.0109393212    8.6618147187
     C     7.3367059014   -1.5639927985    9.5427389385
     C     8.4322538128   -0.8866407227    8.9994707195
     C     8.5141956549   -0.6565109856    7.6267030085
     C     9.4990083099   -0.0179641662    6.7816466099
     C     9.0138392358   -0.1088673386    5.4569757672
     C     9.7291830338    0.4423614193    4.3978825399
     C    10.9420780124    1.0631503755    4.6822714320
     C    11.4652556930    1.1574566664    5.9864570294
     C    10.7181976041    0.6111853270    7.0337931023
     C    12.8080004709    1.8336897002    6.2833955331
     C    13.4956578287    2.3442316284    5.0141184895
     C    12.5843382591    3.0317751573    7.2201681789
     C    13.7488097444    0.8267482773    6.9654090790
     C     7.2648226482   -1.7922321285   11.0568917756
     C     6.0025874756   -2.5521911301   11.4735129767
     C     8.4855515090   -2.6087931732   11.5114854039
     C     7.2688789803   -0.4334564136   11.7762044611
     H    -0.0224825363    0.7672424113   -1.7033581863
     H    -1.0724971623    0.9214331944   -0.2704575997
     H    -1.7108399756    0.2591063983   -1.7987074073
     H     1.2982841673    0.8095440215    0.0686655527
     H     3.6293120673    0.4293358747    0.7217755970
     H     3.1009910158   -3.7981231200    0.1697282162
     H    -3.0225477817   -0.5263246641   -0.2390060180
     H    -4.7566243223   -2.1623829066    0.2535930848
     H    -1.8537763788   -5.3256312238   -0.0666838586
     H    -3.8839623952   -5.9205012352    0.4102240849
     H   -10.0404091365   -4.3823694954    0.9831900255
     H    -9.1017252976   -3.0144922827    0.3194724449
     H    -7.6754998737   -2.1546295448    2.0795451382
     H     3.8226995153   -0.5714868880    3.1577773342
     H     5.2534950723   -0.0879668514    5.1185153082
     H     8.5932040505   -2.0935058245    3.2974662133
     H     4.8152191373   -3.0663146854   -1.7334475663
     H     6.8294879010   -4.1496569955   -2.6950323227
     H     9.1072243144   -3.2765717082    0.8435892511
     H     8.7795515513   -6.0616835954    0.6943428302
     H    10.2436915524   -7.9787636295    1.1580713535
     H    12.6185199875   -7.1202802792   -2.3265363233
     H     8.7199836500   -2.2226026375   -3.3507630842
     H    10.1532663418   -1.8246498435   -5.3004882867
     H    12.5929994669   -5.2284842250   -4.3088823918
     H    11.9749234556   -1.1059293483   -6.3882157189
     H    10.9328980159   -2.1416682610   -7.3882618533
     H    12.6267956442   -1.8900254406   -7.8345714328
     H    13.8883423251   -2.1330438778   -5.0514053353
     H    14.4833240983   -2.8492314452   -6.5640039159
     H    14.2134420584   -3.8735723251   -5.1440905935
     H    11.3334451321   -4.6543210139   -7.4729099867
     H    12.6894567845   -5.3777528082   -6.5884876924
     H    13.0043044176   -4.3079397178   -7.9657763284
     H    11.0664678874  -10.3468103643   -1.1368637866
     H    10.7353862057  -10.0966482233    0.5875938563
     H    12.1420205778  -11.0502961287    0.0891813511
     H    13.1591227526   -9.3166814416   -2.2043257858
     H    14.1222508500  -10.0135594498   -0.8922622885
     H    14.2243846003   -8.2790013417   -1.2309661485
     H    12.2758744439   -8.5680496329    1.9756967280
     H    13.6842557987   -7.8152810898    1.2045971649
     H    13.6477093021   -9.5697912710    1.4741055277
     H     5.5929937304   -2.1633590133    6.6407435511
     H     5.4753610850   -2.5464451378    9.0554463556
     H     9.2341829606   -0.5355056562    9.6448098080
     H     9.3605854678    0.3930399781    3.3777843492
     H    11.4961990053    1.4864615880    3.8510537424
     H    11.0809639374    0.6721935277    8.0573375038
     H    12.8910604233    3.0997895562    4.4991593408
     H    13.7053483157    1.5319654453    4.3085170192
     H    14.4519670558    2.8093676171    5.2792352741
     H    11.9223493888    3.7717933401    6.7554290549
     H    13.5401199944    3.5218931348    7.4433299873
     H    12.1341671725    2.7250501666    8.1707069816
     H    13.9229284860   -0.0419912732    6.3202262448
     H    13.3355588554    0.4679039797    7.9139545377
     H    14.7171072731    1.2968178638    7.1765527700
     H     5.9546236175   -3.5441572891   11.0097526424
     H     5.0907317717   -2.0039528575   11.2098544306
     H     6.0040473856   -2.6926787413   12.5603716649
     H     8.5074188391   -3.5864016500   11.0160874496
     H     8.4481851709   -2.7758336673   12.5951031903
     H     9.4249019593   -2.0931425852   11.2849004184
     H     6.3996487674    0.1657659125   11.4813428876
     H     8.1714303820    0.1409274468   11.5422391202
     H     7.2325127058   -0.5780741632   12.8630052812
