40
-1.0135578088224172e+03 frame 45   xyz file generated by TeraChem
     C     5.8939503866   -1.3249679483   -1.0281536162
     C     5.9132725555    0.0986694195   -0.5165915837
     O     6.1082641607    0.1380922239    0.9099198804
     C     5.0096478459    0.0107923240    1.6692230055
     O     3.8956049582   -0.1607088709    1.2164650410
     C     5.3193912225    0.1519490946    3.1151630286
     C     6.3982528349    0.9161889667    3.4888082372
     C     6.6429896014    1.2198146399    4.8423269598
     C     7.6036654507    1.9530333413    5.5222436252
     C     7.2819968719    1.8876801322    6.8957846020
     C     6.1276378608    1.1166280271    7.0361197669
     N     5.7425106220    0.7159626259    5.7992436071
     C     4.6831444880   -0.0814602126    5.4363623483
     C     4.4358999475   -0.3832843200    4.1299796117
     C     3.3129161862   -1.3137958022    3.8527955169
     C     2.0421665710   -1.0591790059    4.3797216071
     C     0.9989582248   -1.9625653376    4.1868256972
     C     1.2135066117   -3.1341973389    3.4657973762
     C     2.4785794848   -3.3982555279    2.9396681917
     C     3.5194608418   -2.4966736564    3.1307802185
     C     8.0471710705    2.5296679518    7.9773681110
     O     9.0567162819    3.1755027251    7.7291714852
     C     7.5431266911    2.3676767830    9.3890306628
     H     5.8065959755   -1.3203500411   -2.1198608035
     H     5.0418994843   -1.8735065471   -0.6167637797
     H     6.8166775918   -1.8489859717   -0.7594617185
     H     4.9863182885    0.6241882251   -0.7597334327
     H     6.7599564572    0.6580988287   -0.9203409205
     H     7.0649634119    1.3278733695    2.7393457995
     H     8.4403770957    2.4768469167    5.0818009207
     H     5.5657130155    0.8274436373    7.9130191614
     H     4.0872884375   -0.4726668516    6.2529802719
     H     1.8685854560   -0.1387006337    4.9317244392
     H     0.0164096100   -1.7455680982    4.5977936826
     H     0.4007418922   -3.8394658168    3.3139361011
     H     2.6563897783   -4.3140134074    2.3817754474
     H     4.5053790767   -2.7161887172    2.7286625859
     H     7.4629804088    1.3066901745    9.6518316432
     H     6.5413587270    2.8024721628    9.4870006379
     H     8.2244651416    2.8662620827   10.0808203415
