44
-1.5257731499446686e+03 frame 46   xyz file generated by TeraChem
     C     4.9044921652    1.4566607251    0.6549548073
     C     5.3133807502    0.0681051626    1.0957772859
     O     5.6571866340   -0.7556421331   -0.0348650212
     C     4.6476503209   -1.3897540128   -0.6475718186
     O     3.4832451384   -1.2783993480   -0.3193848179
     C     5.1329838158   -2.2720510188   -1.7389641333
     C     6.3997078803   -2.7948501103   -1.6505644879
     C     6.8534434387   -3.7652999506   -2.5650431672
     C     8.0209437235   -4.4961110047   -2.7128320106
     C     7.8544317538   -5.3274282874   -3.8431155403
     C     6.5778218531   -5.1021804997   -4.3620024418
     N     5.9736807242   -4.1669351952   -3.5864949807
     C     4.7198701974   -3.6196135841   -3.7083443746
     C     4.2603312460   -2.6945597092   -2.8158431462
     C     2.9062437791   -2.1707130259   -3.0561715390
     C     1.7619386495   -2.9052745911   -3.2399598955
     C     0.6262165714   -2.1097469617   -3.5604966016
     C     0.9211002668   -0.7778185854   -3.6270521548
     S     2.5855401738   -0.4805116462   -3.3025781816
     C     8.8509131753   -6.3207278102   -4.2803409352
     O     9.7294695682   -6.6831073902   -3.5031506547
     C     8.7817326630   -6.9023909066   -5.6518085663
     C     9.2820924077   -8.1976003190   -5.8389844380
     C     9.2727997667   -8.7794089576   -7.1000837652
     C     8.7865112424   -8.0624963257   -8.1946755638
     C     8.3091509083   -6.7650433125   -8.0218498375
     C     8.2998670220   -6.1871056714   -6.7546611820
     H     4.7176032984    2.0806569935    1.5353347354
     H     3.9894208810    1.4209765741    0.0568813462
     H     5.6968359322    1.9255150461    0.0629104001
     H     4.5180792430   -0.4235264104    1.6615583447
     H     6.2231570200    0.0907837356    1.6994112265
     H     7.0619048493   -2.4953382808   -0.8460808173
     H     8.8980582286   -4.4345313576   -2.0841056986
     H     6.0524853189   -5.5620088781   -5.1864688927
     H     4.1375503448   -3.9521815487   -4.5594785335
     H     1.7383503623   -3.9845008157   -3.1275833223
     H    -0.3679644934   -2.5109089678   -3.7266978630
     H     0.2579770045    0.0504407744   -3.8434165116
     H     9.6688152586   -8.7377782981   -4.9797194290
     H     9.6482167212   -9.7902924775   -7.2338574644
     H     8.7853898873   -8.5145741914   -9.1830102969
     H     7.9473288746   -6.1987125131   -8.8756205307
     H     7.9475289853   -5.1676005831   -6.6297008559
