30
-7.9980523431982419e+02 frame 15   xyz file generated by TeraChem
     C     1.5231467823   -0.5224285558   -0.9168468008
     C     2.4770075769    0.4429221081   -0.2482758678
     O     3.1987566390    1.2234852067   -1.2225357542
     C     4.2883972236    0.6636589764   -1.7541969170
     O     4.7032973533   -0.4389543849   -1.4560049994
     C     4.9433725441    1.5555857837   -2.7497778255
     C     4.4053110576    2.8362114295   -3.0788973766
     C     5.0390359239    3.6198274774   -3.9913415143
     N     6.1867421860    3.1712343983   -4.5836259977
     C     6.7541157795    1.9204093003   -4.2955912377
     C     6.0947365077    1.1070515980   -3.3484055777
     N     7.8618935198    1.6899976645   -4.9833780057
     C     8.0369912344    2.8139219141   -5.7481540611
     C     7.0086513413    3.7605302026   -5.5239778051
     C     6.9483060780    4.9929165720   -6.1748614914
     C     7.9629953394    5.2660469294   -7.0779901982
     C     8.9995499233    4.3384178726   -7.3198557002
     C     9.0529696400    3.1176072145   -6.6699654566
     H     0.9533347332   -1.0597157490   -0.1514198231
     H     2.0693043604   -1.2554185808   -1.5171319382
     H     0.8168896799    0.0100978941   -1.5613797206
     H     3.1992200490   -0.0784281462    0.3845478787
     H     1.9446136844    1.1859846251    0.3486924430
     H     3.4955893307    3.1892407281   -2.6104837844
     H     4.6904614749    4.6005286242   -4.2928995917
     H     6.5096500578    0.1352155736   -3.1055975813
     H     6.1494109980    5.7044713196   -5.9868577974
     H     7.9613504925    6.2124297650   -7.6110214587
     H     9.7749441417    4.5946665343   -8.0368126595
     H     9.8526142878    2.4073557347   -6.8589633759
