33
-8.3907280442232923e+02 frame 40   xyz file generated by TeraChem
     C     1.9637812205    0.7493816584   -0.2338549463
     C     2.7575293387   -0.5021990819    0.0711886007
     O     3.2712622157   -0.4870132732    1.4161097494
     C     4.4225720664    0.1709586354    1.6143435659
     O     5.0246025484    0.7395319510    0.7238643868
     C     4.8567710058    0.1034817739    3.0363398445
     C     4.0588137263   -0.6409695695    3.9631756782
     C     4.4144303117   -0.7383004115    5.2675807955
     N     5.5539539464   -0.1110466298    5.6883193026
     C     6.3687703738    0.6308034614    4.8283172685
     C     6.0122104854    0.7471580200    3.4512013401
     C     6.9268300856    1.5592374373    2.5862010523
     N     7.4194023322    1.1504317332    5.4495039998
     C     7.2974540441    0.7431403361    6.7506556011
     C     6.1401092303   -0.0488270121    6.9367282264
     C     5.7772317730   -0.5942208547    8.1686648810
     C     6.6181493687   -0.3237952575    9.2363623605
     C     7.7792081523    0.4636942228    9.0762183437
     C     8.1324489676    1.0012456556    7.8509289560
     H     1.5268254996    0.6682913437   -1.2348586870
     H     2.6057384530    1.6343016939   -0.2096436514
     H     1.1499428929    0.8806951967    0.4862522190
     H     3.5939074621   -0.6251911322   -0.6213895493
     H     2.1275237685   -1.3935110764    0.0356988534
     H     3.1593244843   -1.1346460162    3.6210799226
     H     3.8529369419   -1.2869226585    6.0141164077
     H     7.7371759634    1.9675713350    3.1922976533
     H     6.3868556356    2.3791955592    2.1045322709
     H     7.3498526211    0.9508235064    1.7814943221
     H     4.8835981482   -1.1997940924    8.2895447926
     H     6.3800278868   -0.7256002045   10.2170076703
     H     8.4094862537    0.6495739532    9.9417415632
     H     9.0262916783    1.6065882667    7.7314444658
