46
-1.1091223944501080e+03 frame 60   xyz file generated by TeraChem
     C     1.5945840960    0.9884940123   -0.4271914448
     C     1.9496980221    0.2899269892    0.8673143326
     O     2.7533762392    1.1382499607    1.7107471592
     C     4.0719391692    1.1440285662    1.4782763917
     O     4.6109719527    0.4840844224    0.6153916167
     C     4.7807246736    2.0381841656    2.4418089409
     C     4.2207907496    2.1891209946    3.7474274459
     C     4.8613245389    2.9186675838    4.6959648216
     N     6.0427096724    3.5240541634    4.3787097446
     C     6.6292525321    3.4306039283    3.1077880545
     C     5.9755068279    2.6527009724    2.1049415340
     C     6.5975568495    2.6147991177    0.7585928975
     C     5.9089964441    3.1080964094   -0.3550484112
     C     6.5015733199    3.0932328146   -1.6139739510
     C     7.7889055626    2.5834656435   -1.7754514664
     C     8.4833636213    2.0975785157   -0.6690709527
     C     7.8954880283    2.1204205068    0.5924604272
     N     7.7549594431    4.1230875702    3.0195946381
     C     7.9224677378    4.6812718019    4.2605246039
     C     6.8725208864    4.3300522515    5.1321968099
     C     6.8037512678    4.7770157014    6.4513473903
     C     7.8214407132    5.6007904754    6.9117735330
     C     8.8989587469    5.9706462861    6.0473105877
     C     8.9460884892    5.5144412261    4.7389445021
     C     9.9882114906    6.8657342902    6.5687585445
     C     7.7889727078    6.1083277144    8.3259793527
     H     0.9298920626    0.3485904477   -1.0171752121
     H     2.4917601284    1.1916433542   -1.0189248368
     H     1.0771716533    1.9328503535   -0.2308523943
     H     2.4930279416   -0.6408107067    0.6859644448
     H     1.0614315783    0.0780638918    1.4660415629
     H     3.2861504372    1.7016233741    3.9929490059
     H     4.4958073990    3.0569562715    5.7064960131
     H     4.9073298193    3.5119049768   -0.2303059405
     H     5.9567303046    3.4822720934   -2.4701351962
     H     8.2510339691    2.5700756904   -2.7590324414
     H     9.4883610448    1.7008897770   -0.7866032413
     H     8.4410032641    1.7486487832    1.4548356921
     H     5.9839022406    4.4960196558    7.1074415449
     H     9.7658742812    5.7982286674    4.0839440773
     H    10.5065893048    6.4117048419    7.4227955923
     H     9.5857188707    7.8241508264    6.9198828527
     H    10.7314029240    7.0743261609    5.7938786491
     H     6.9047893260    5.7414093269    8.8550698363
     H     7.7723023234    7.2050740196    8.3596034358
     H     8.6762115597    5.7915471752    8.8887357652
