40
-1.0305839317605059e+03 frame 40   xyz file generated by TeraChem
     C     1.2052886149    0.8506648283    0.6777271442
     C     1.6012745823   -0.6094354480    0.6925778072
     O     2.3692399560   -0.9271107192    1.8707817302
     C     3.6867637033   -0.6997989485    1.8107012989
     O     4.2500897577   -0.2259580084    0.8469252703
     C     4.3655049333   -1.1493308835    3.0644722493
     C     3.8004044279   -2.2574777584    3.7675740109
     C     4.4246879668   -2.7800494688    4.8535804427
     N     5.5964228123   -2.2199794727    5.2750581089
     C     6.1833249126   -1.1160910733    4.6414623921
     C     5.5438832096   -0.5622284694    3.4910398282
     C     6.1578910794    0.6409055983    2.8786409016
     C     5.4545152604    1.8497340760    2.8385081511
     C     6.0374651783    2.9857337122    2.2850542437
     C     7.3289487038    2.9263521703    1.7638092391
     C     8.0372397258    1.7268043871    1.8067801689
     C     7.4593546827    0.5920886709    2.3685091705
     N     7.2991643196   -0.7238436346    5.2367651020
     C     7.4628662985   -1.5910091941    6.2845408494
     C     6.4152907138   -2.5388212810    6.3413611217
     C     6.3381833882   -3.5328578286    7.3172552989
     C     7.3582227562   -3.5595621979    8.2554509321
     C     8.4157149831   -2.6252312576    8.2182658660
     C     8.4842424676   -1.6414056423    7.2472609631
     H     0.5674783893    1.0485494871   -0.1902347553
     H     2.0886324466    1.4921954228    0.6096004735
     H     0.6466720873    1.1108077395    1.5822469066
     H     2.1873188314   -0.8764693061   -0.1900842851
     H     0.7283563990   -1.2623195193    0.7573046139
     H     2.8747691010   -2.6984692280    3.4211901741
     H     4.0542165536   -3.6266337067    5.4193940954
     H     4.4497457398    1.8989317285    3.2509726854
     H     5.4822396230    3.9197477611    2.2632015122
     H     7.7834045815    3.8132687589    1.3301583961
     H     9.0452039586    1.6734142898    1.4038556302
     H     8.0149328872   -0.3402972251    2.4068700443
     H     5.5244603583   -4.2517437910    7.3445470239
     H     7.3439629323   -4.3152877082    9.0354515355
     H     9.1943553150   -2.6837549792    8.9740132996
     H     9.2983206918   -0.9230036366    7.2202451255
