57
-1.3238727343681162e+03 frame 49   xyz file generated by TeraChem
     C    -0.2508510064   -0.6458794129   -0.1574904596
     C     1.0244049435   -0.0905466946   -0.7483223235
     O     1.4797607092   -1.0104272037   -1.7319486248
     C     2.6160363665   -0.6983219818   -2.4061975176
     C     3.3718942011    0.4496395838   -2.2063705910
     C     4.5086028843    0.6833892997   -2.9899076122
     C     4.9089189002   -0.2430731967   -3.9329156491
     C     4.1885671538   -1.4374232451   -4.1265404527
     C     3.0011471892   -1.6357709252   -3.3940259483
     O     2.1887695720   -2.6942707293   -3.5789359255
     C     4.6117023573   -2.4355322976   -5.1388043023
     N     3.5897621702   -3.0625070224   -5.7542582897
     C     3.8048228672   -3.8967041206   -6.7631317966
     C     2.6063601607   -4.5280824193   -7.4118950849
     C     2.7995166724   -4.5357191562   -8.9263500408
     C     4.0708366902   -5.2690851052   -9.2563581921
     C     5.1921819652   -5.0965758188   -8.4149888260
     C     5.0891359699   -4.1430448989   -7.2861905672
     C     6.1653102288   -3.4657184519   -6.6863771214
     C     5.9434033919   -2.6899729220   -5.5234653987
     C     7.1372014526   -2.2443644590   -4.7666708202
     C     7.1698799827   -2.2163395478   -3.3660975148
     C     8.3260396343   -1.8395698386   -2.6920842046
     C     9.4716945067   -1.4935120860   -3.4081017745
     C     9.4616255462   -1.5610185763   -4.7988566811
     C     8.3094381619   -1.9462133666   -5.4827141841
     C     8.2659665884   -2.1416623074   -6.9687313950
     C     7.5615762408   -3.4661630040   -7.2598823993
     C     6.3265017685   -5.8888544521   -8.6443754484
     C     6.3833164461   -6.7729341599   -9.7176198170
     C     5.2966453373   -6.8915614927  -10.5792081223
     C     4.1433510379   -6.1501141754  -10.3330207484
     H    -0.6355504276    0.0382130527    0.6054589413
     H    -0.0705499915   -1.6193254083    0.3092927689
     H    -1.0153257248   -0.7664753583   -0.9315013414
     H     1.7942724895    0.0350399530    0.0255966859
     H     0.8487399843    0.8904122506   -1.2112296984
     H     3.0720525439    1.1803662015   -1.4632372199
     H     5.0720549780    1.6017799622   -2.8527906528
     H     5.7867648080   -0.0529630749   -4.5405066929
     H     2.4433323691   -3.0590187213   -4.4699813101
     H     1.7099110214   -3.9735793722   -7.1207201565
     H     2.4892966831   -5.5617226238   -7.0544692455
     H     2.8466843126   -3.4990290455   -9.2917689691
     H     1.9485997759   -5.0120350446   -9.4236770256
     H     6.2852301608   -2.4953817583   -2.8020104455
     H     8.3340285145   -1.8226508072   -1.6054584265
     H    10.3757720136   -1.1946264160   -2.8840647742
     H    10.3613811168   -1.3282201173   -5.3644209776
     H     9.2763815855   -2.1482649644   -7.3897815637
     H     7.7152650221   -1.3235499643   -7.4552747757
     H     8.1570452992   -4.2835742820   -6.8278845055
     H     7.5133540419   -3.6435852211   -8.3381442094
     H     7.1669945791   -5.8424514906   -7.9614662214
     H     7.2746968696   -7.3753633134   -9.8705512381
     H     5.3348472985   -7.5768777698  -11.4218266038
     H     3.2736594781   -6.2670561044  -10.9759724927
