52
-1.5098663081491263e+03 frame 110   xyz file generated by TeraChem
     C     2.7505429494   -1.2555802764    1.5345068781
     N     2.5263700142   -0.1288057971    0.6540202341
     C     2.9583906708    1.1152012067    1.0110898468
     C     3.6404995813    1.3348763075    2.2338371416
     C     4.0756500651    2.5962868581    2.5906880113
     C     3.8592441829    3.7098832849    1.7565487438
     C     3.1819482691    3.4958579690    0.5407904912
     C     2.7432024430    2.2383460673    0.1740551740
     C     4.3095813171    4.9987150898    2.1293192163
     C     4.7004130282    6.1057307662    2.4553586013
     C     5.1583871519    7.3837278435    2.8358274694
     C     5.8897281159    7.5776280528    4.0186378160
     F     6.1532896313    6.5270019091    4.7968314828
     C     6.3418217756    8.8278945187    4.3909243280
     F     7.0364937019    8.9635115373    5.5220338236
     C     6.0901482499    9.9639358750    3.6052529592
     C     5.3587863286    9.7699611712    2.4224754436
     C     4.9066260675    8.5197326381    2.0501275069
     F     4.2119711470    8.3841062185    0.9190118813
     F     5.0952810765   10.8206128116    1.6442989783
     C     6.5484023940   11.2418302861    3.9857436119
     C     6.9397813226   12.3485362409    4.3121728906
     C     7.3912347726   13.6367930605    4.6855710781
     C     7.1704596965   14.7520972589    3.8548886614
     C     7.6069168519   16.0128554797    4.2124668262
     C     8.2950909168   16.2300308650    5.4322790467
     C     8.5140060000   15.1052632321    6.2661605043
     C     8.0739401170   13.8484256199    5.8987284070
     N     8.7294946335   17.4731663360    5.7895536761
     C     9.4073699628   17.6713743869    7.0526851292
     C     8.4962556898   18.6029261194    4.9152962209
     C     1.8474798677   -0.3283592703   -0.6083577568
     H     2.2801110182   -1.1014621295    2.5145549883
     H     3.8213724416   -1.4396207446    1.6954694094
     H     2.3157472358   -2.1495962555    1.0867281168
     H     3.8312544355    0.5076847813    2.9078873663
     H     4.5964839528    2.7333100570    3.5343171169
     H     3.0019272969    4.3375518971   -0.1222185808
     H     2.2259350670    2.1219740969   -0.7714400473
     H     6.6449378726   14.6170235069    2.9135798747
     H     7.4121470181   16.8415307132    3.5413994948
     H     9.0352833290   15.2198509040    7.2096743862
     H     8.2570261896   13.0054014895    6.5592029579
     H     8.7754143919   17.3800152739    7.9022778430
     H     9.6552511109   18.7276046668    7.1615699472
     H    10.3405394651   17.0947282206    7.1089026310
     H     8.9560150189   18.4512934934    3.9299185496
     H     8.9371124626   19.4950700668    5.3608875077
     H     7.4238749167   18.7885534007    4.7663027484
     H     1.6010860108   -1.3849905267   -0.7167303453
     H     2.4785863827   -0.0366736189   -1.4583928434
     H     0.9134799958    0.2470778946   -0.6643700854
