46
-1.3480407553610726e+03 frame 53   xyz file generated by TeraChem
     C     1.9760694271    1.3073969932   -0.1550821422
     C     2.3233128197   -0.1608187635    0.0548666600
     N     2.9341750173   -0.4206749543    1.3565472943
     C     2.2032528941   -0.6835888571    2.4592155255
     C     0.7704169357   -0.6400577946    2.4276331619
     C     0.0331107270   -0.9043377395    3.5474143605
     C     0.6498017329   -1.2315904832    4.7776310655
     C     2.0615025726   -1.2727647825    4.8057936847
     C     2.8247288051   -1.0098605507    3.6934186549
     O     2.7464903392   -1.5777581235    5.9468281119
     C     2.1297403603   -1.8900176202    7.1327084038
     O     2.8372588919   -2.1489959812    8.0766887348
     C     0.6695671111   -1.8720052231    7.1290884016
     C    -0.0542231862   -1.5236720107    5.9615365899
     O    -1.3526425921   -1.5112370914    5.9788978415
     B    -2.1515695257   -1.7057763759    7.2101190590
     F    -2.6744363105   -0.4821042673    7.5944495178
     F    -3.1333817247   -2.6366875370    6.9544287029
     N    -1.1978579864   -2.2453456754    8.3441175176
     N     0.0830741835   -2.2659802320    8.2609391317
     C    -1.7424067149   -2.7910450105    9.5386967282
     C    -2.9661157402   -2.3132397830   10.0167312514
     C    -3.5001764730   -2.8521842795   11.1823882247
     C    -2.8257771886   -3.8589078450   11.8707343991
     C    -1.6058925306   -4.3308061900   11.3858031166
     C    -1.0622205117   -3.8046522472   10.2203260170
     C     4.3928570977   -0.3570620111    1.3904920375
     C     5.0549423474   -1.7121853094    1.1751833849
     H     1.5667518601    1.4537586254   -1.1600386724
     H     2.8671104106    1.9359847363   -0.0527826917
     H     1.2320294487    1.6477623867    0.5724034922
     H     3.0437489413   -0.4881397526   -0.7010402766
     H     1.4429062232   -0.7967141515   -0.0705434192
     H     0.2519841271   -0.3769986889    1.5144223593
     H    -1.0506039549   -0.8589595748    3.5057333755
     H     3.9002831660   -1.0805862666    3.7923144017
     H    -3.4801595751   -1.5139764169    9.4956192348
     H    -4.4475866141   -2.4746527768   11.5566032219
     H    -3.2499537512   -4.2774473301   12.7790541475
     H    -1.0788717970   -5.1228607371   11.9104284077
     H    -0.1230751669   -4.1779792470    9.8254080374
     H     4.7138268783    0.0921047522    2.3347178799
     H     4.6971631852    0.3392682799    0.6030140523
     H     4.7799615114   -2.4201280037    1.9636861933
     H     6.1440799570   -1.5988307620    1.1804621732
     H     4.7609342848   -2.1416049318    0.2113374166
