72
-1.9714437352062987e+03 frame 96   xyz file generated by TeraChem
     C     0.4108446181    0.2510855590   -1.2029599367
     N     1.5716663046   -0.3488020872   -1.8247508487
     C     2.5270437568    0.4445368304   -2.3971547436
     C     2.4538651748    1.8569846846   -2.3244185561
     C     3.4323042784    2.6533975819   -2.8901927214
     C     4.5341369625    2.0958699931   -3.5651610088
     C     4.6040875124    0.6925743993   -3.6473708278
     C     3.6320446792   -0.1136093326   -3.0852000790
     C     5.5371457509    2.9127539657   -4.1467548711
     C     6.4053308563    3.6041255421   -4.6506379166
     C     7.4244683787    4.3985244136   -5.2402894660
     C     8.4981447635    3.7954607826   -5.9208678869
     C     9.4927935815    4.5685925511   -6.4979413077
     C     9.4557698336    5.9681256283   -6.4147973764
     C     8.3880366843    6.5708206337   -5.7335888590
     C     7.3877120988    5.8024043829   -5.1582197579
     C    10.5224984666    6.7839111149   -7.0276435342
     C    11.0202342051    6.5168629991   -8.3059118404
     F    10.5135882449    5.5069462710   -9.0231347941
     C    12.0317713903    7.2701539691   -8.8815736486
     F    12.4435251710    6.9208762098  -10.1065136826
     C    12.6239498229    8.3487996310   -8.2207309292
     C    12.1219856920    8.6193368812   -6.9454155260
     C    11.1090711434    7.8674327230   -6.3705403898
     F    10.7068748745    8.2111697493   -5.1406143975
     F    12.6135284444    9.6420628547   -6.2354416968
     C    13.7094531323    9.1495551734   -8.8205339923
     C    13.6374013418    9.5750351571  -10.1546546086
     C    14.6557346597   10.3303405532  -10.7157196210
     C    15.7883956763   10.6818273876   -9.9590637325
     C    15.8607200177   10.2508205170   -8.6217026427
     C    14.8370182759    9.5010200011   -8.0644322297
     C    16.8362533153   11.4536255735  -10.5282304255
     C    17.7395953300   12.1159956330  -11.0087661728
     C    18.7944831801   12.8889538238  -11.5577785372
     C    19.9726334758   13.1330268786  -10.8271403927
     C    21.0047343435   13.8878719696  -11.3522707040
     C    20.9130970998   14.4490822111  -12.6493958664
     C    19.7274432389   14.2010730444  -13.3834027886
     C    18.7028089455   13.4423936592  -12.8485439233
     N    21.9279297356   15.2003122680  -13.1710323608
     C    23.1318460373   15.4275124498  -12.4017679813
     C    21.8077000114   15.7600701409  -14.4996894403
     C     1.6148834867   -1.7825751680   -2.0162028667
     H    -0.2056491887    0.8078225764   -1.9235198146
     H     0.7021386820    0.9397743500   -0.4004846205
     H    -0.2034502375   -0.5349971267   -0.7621511827
     H     1.6209277966    2.3353767102   -1.8217716717
     H     3.3465043149    3.7340582410   -2.8153973874
     H     5.4403400788    0.2328578247   -4.1671676212
     H     3.7301384302   -1.1890858321   -3.1795582643
     H     8.5457638474    2.7127162383   -5.9882889054
     H    10.3155678644    4.0789922723   -7.0089207006
     H     8.3342340995    7.6524590293   -5.6622974994
     H     6.5641323483    6.2848283703   -4.6403000773
     H    12.7701929902    9.3217747810  -10.7560614511
     H    14.5815100463   10.6580775767  -11.7482962480
     H    16.7304305032   10.5085740231   -8.0248177294
     H    14.9182837121    9.1752384471   -7.0326202070
     H    20.0723037875   12.7177020826   -9.8279968967
     H    21.8927386204   14.0478569988  -10.7513451352
     H    19.6097765716   14.6070679954  -14.3816298045
     H    17.8058027257   13.2700841223  -13.4371339576
     H    23.6457915609   14.4866284579  -12.1617964465
     H    22.9194873461   15.9480545735  -11.4581187070
     H    23.8146180402   16.0476117255  -12.9834740879
     H    20.9522079521   16.4447854434  -14.5749091424
     H    21.6859195997   14.9780755149  -15.2615202126
     H    22.7126931556   16.3218180375  -14.7329081404
     H     0.7760058083   -2.2381930298   -1.4888702917
     H     2.5405924846   -2.2119456144   -1.6126948197
     H     1.5453525151   -2.0592781053   -3.0778495621
