45
-1.3081106731781265e+03 frame 49   xyz file generated by TeraChem
     C     2.3324510307   -0.6031107964    0.6167697040
     N     3.0572216578    0.4939252059   -0.0004448466
     C     3.6219650937    0.3386573942   -1.2169265029
     C     3.5340313912   -0.8925103076   -1.9233613133
     C     4.1191216392   -1.0393325326   -3.1570348444
     C     4.8068603762    0.0224947300   -3.7956664683
     C     4.9015902991    1.2423797463   -3.0822609693
     C     4.3423640621    1.3972684690   -1.8380499623
     C     5.3800115785   -0.1748290827   -5.0967249150
     C     5.7142002622    0.8073342784   -6.0174458044
     C     5.3783656833    2.1843118416   -5.8847163618
     N     5.1091079632    3.3154796312   -5.8399358615
     C     6.4186093803    0.5000576651   -7.2185663801
     N     7.0001212280    0.2849357282   -8.2032492920
     C     5.6913172938   -1.5846145909   -5.4930453584
     C     4.9535580422   -2.1700489733   -6.4822548259
     C     3.8330338683   -1.5071331439   -7.0781040972
     N     2.9096695546   -1.0104152647   -7.5771815057
     C     5.2313542773   -3.4606225959   -7.0329415139
     N     5.4229525435   -4.4921118649   -7.5309327223
     C     6.7902496165   -2.2508202111   -4.7807000846
     C     7.9001991199   -1.4923567015   -4.3777497549
     C     8.9631557550   -2.0959643742   -3.7219302490
     C     8.9205960858   -3.4614187238   -3.4250781859
     C     7.7951123008   -4.2100091120   -3.7808058544
     C     6.7444579592   -3.6179143508   -4.4625802312
     C    10.0097193064   -4.1627082559   -2.6789761433
     O     9.8128843649   -5.1688375142   -2.0348661076
     O    11.2418918626   -3.6388753962   -2.7319674503
     C     3.1704826624    1.7577643896    0.7063251386
     H     2.9821624243   -1.4723907146    0.7738648806
     H     1.4797292723   -0.9104514836   -0.0001573379
     H     1.9553847712   -0.2769168490    1.5855229435
     H     3.0015260136   -1.7324865414   -1.4937172764
     H     4.0142544903   -1.9963765389   -3.6607263464
     H     5.4666134141    2.0720019139   -3.4914486790
     H     4.4720618480    2.3424922322   -1.3245872405
     H     7.9417213240   -0.4282608781   -4.5890441171
     H     9.8021004688   -1.4767822188   -3.4162213087
     H     7.7524726300   -5.2608548787   -3.5135566958
     H     5.8705381679   -4.2118301931   -4.7080881959
     H    11.3022956870   -2.9194372568   -3.3812440718
     H     2.6385844777    1.6814582565    1.6540424595
     H     2.7289194060    2.5776434915    0.1276837398
     H     4.2181660507    2.0036851244    0.9173761868
