48
-1.3577367886133916e+03 frame 63   xyz file generated by TeraChem
     C     1.6347878201   -0.5254857206    0.7178760799
     N     2.8010436216   -0.2379281747   -0.0891213720
     C     3.4542767306    0.9597196200    0.0651729075
     C     3.1315375828    1.8465623427    1.1173022008
     C     3.8170858725    3.0387776893    1.2846573071
     C     4.8452519796    3.4261328041    0.4132542007
     C     5.1560876876    2.5553374242   -0.6408205801
     C     4.4845809388    1.3567737589   -0.8170712699
     C     5.5646073531    4.7001909543    0.5915196843
     C     5.9813121201    5.1634734238    1.8425165659
     F     5.7401814370    4.4388482453    2.9456893738
     C     6.6578764703    6.3618931274    2.0065411331
     F     6.9988383155    6.7094759249    3.2566619414
     C     6.9871710225    7.1975120562    0.9343385945
     C     6.5705744420    6.7331713409   -0.3170310640
     C     5.8852742626    5.5393419524   -0.4801373181
     F     5.5245656192    5.2000998381   -1.7269522168
     F     6.8298907922    7.4461502230   -1.4239703519
     C     7.7194937198    8.4635414849    1.1149564062
     C     8.7967334269    8.5595474324    2.0078184573
     C     9.4929758069    9.7434489003    2.1858796700
     C     9.1345958418   10.9153906329    1.4812547656
     C     8.0558719665   10.8137504315    0.5732636884
     C     7.3729999941    9.6203921044    0.4021626647
     N     9.7997611736   12.0988644107    1.6747693751
     C    10.9828506135   12.1285736496    2.5066357539
     C     9.5095613335   13.2325131811    0.8240985418
     C     3.0375392302   -1.0334768977   -1.2745152931
     H     0.8149234217    0.1879200497    0.5443408684
     H     1.8801722354   -0.5079453836    1.7862389780
     H     1.2754022597   -1.5269474742    0.4765579437
     H     2.3324960294    1.6052570649    1.8089807305
     H     3.5331717839    3.6912750269    2.1047516099
     H     5.9469680440    2.8151344427   -1.3374007902
     H     4.7653245696    0.7220731643   -1.6497330460
     H     9.1107970299    7.6846283543    2.5682295488
     H    10.3269757859    9.7532431787    2.8784760925
     H     7.7410059069   11.6766179334   -0.0029626087
     H     6.5438514883    9.5935254007   -0.2978893224
     H    10.7584392472   11.7909205067    3.5256303365
     H    11.3478442517   13.1546961025    2.5689391136
     H    11.7918762860   11.4974660320    2.1091593427
     H     8.4580437275   13.5328229409    0.9086021622
     H     9.7200366590   13.0253271108   -0.2356931368
     H    10.1238005097   14.0780895705    1.1368710862
     H     2.4584082207   -1.9552403798   -1.2035138630
     H     4.0949807975   -1.3100395020   -1.3592717004
     H     2.7461009507   -0.5114090245   -2.1985255840
