70
-1.6812708931097791e+03 frame 91   xyz file generated by TeraChem
     C     1.4321751567    0.3913278025   -0.5850097362
     N     1.8540882485   -0.1494295802    0.6878345075
     C     2.7151964018    0.5576365177    1.4816984229
     C     3.2083916331    1.8254809878    1.0928395149
     C     4.0721741935    2.5363493352    1.9091273698
     C     4.5084597114    2.0378658314    3.1474508795
     C     4.0205827837    0.7764766587    3.5266007385
     C     3.1508349893    0.0532426224    2.7291969865
     C     5.4274426083    2.7938006991    4.0104346052
     C     5.4564861038    4.2008374501    4.0048688274
     C     6.3099504298    4.9122741156    4.8301381370
     C     7.1814367738    4.2438704814    5.7109420473
     C     7.1641684274    2.8374169856    5.7165794516
     C     6.3105267742    2.1344021107    4.8846962929
     C     8.0490050900    5.0050158925    6.5835458685
     N     8.9315467676    4.4087895475    7.4628589250
     C     9.6621694995    5.3252077146    8.2362651144
     O    10.4958148205    4.9857549211    9.0720119817
     C     9.1707490055    6.6097215755    7.7757413690
     C     8.1910400551    6.3738936894    6.7619323292
     C     7.6894626860    7.6582913590    6.3116122824
     O     6.8603162831    7.9980580541    5.4715664729
     N     8.4067791481    8.5740417526    7.0985206672
     C     9.2885222518    7.9773370456    7.9779750380
     C    10.1077519392    8.7361244104    8.8979047671
     C    10.0377083485   10.1386226078    8.9773390277
     C    10.8191036974   10.8385756299    9.8801080181
     C    11.7033825659   10.1788617540   10.7528359662
     C    11.7737868559    8.7762942168   10.6609966673
     C    10.9996714917    8.0683696366    9.7582763474
     C    12.5097182102   10.9278133731   11.7276760699
     C    12.0622754059   12.1454445772   12.2658220483
     C    12.8016227130   12.8546159128   13.1966465650
     C    14.0592176261   12.3844969323   13.6405444803
     C    14.5126134912   11.1573882959   13.1028711689
     C    13.7542747308   10.4588326793   12.1782944811
     N    14.8055777755   13.0882420082   14.5496879522
     C    14.2422037172   14.2593375112   15.1861575918
     C    16.0154198761   12.5063413693   15.0890172162
     C     1.3982828343   -1.4581858523    1.1020242175
     H     2.2787249532    0.5352854067   -1.2711139953
     H     0.9256063975    1.3582619080   -0.4647087355
     H     0.7312033201   -0.3011078898   -1.0523737445
     H     2.9209237019    2.2538910761    0.1390424795
     H     4.4414246814    3.4960386234    1.5561478878
     H     4.3043765627    0.3569600889    4.4884263159
     H     2.7952592391   -0.9080965499    3.0828281084
     H     4.7740758479    4.7489393790    3.3612883500
     H     6.2991568929    5.9999378242    4.8140376753
     H     7.8245313374    2.2723833869    6.3681396870
     H     6.3438329443    1.0488483736    4.8979846326
     H     9.0773093968    3.4149441740    7.5661245367
     H     8.2669702913    9.5685046015    6.9924173289
     H     9.3736433946   10.7023850888    8.3283045105
     H    10.7567072942   11.9228369588    9.8955179445
     H    12.4271127834    8.2266201902   11.3327600585
     H    11.0646871694    6.9831198389    9.7211367939
     H    11.0898179300   12.5355765938   11.9766619555
     H    12.3928622128   13.7766376057   13.5942237918
     H    15.4699609844   10.7493259927   13.4070814579
     H    14.1560866373    9.5314267584   11.7779580386
     H    13.9810907876   15.0265931254   14.4471279194
     H    14.9829275855   14.6874298918   15.8628784017
     H    13.3381535940   14.0243940332   15.7673529920
     H    16.7446997457   12.3025037534   14.2954433684
     H    15.8240538516   11.5654085131   15.6258566661
     H    16.4699096945   13.2122826590   15.7852692861
     H     0.7308541295   -1.8618991656    0.3397689708
     H     0.8448675348   -1.4135498053    2.0498017136
     H     2.2338463214   -2.1602766900    1.2300933276
