51
-1.3736095765294631e+03 frame 34   xyz file generated by TeraChem
     C    -2.3959212223    0.9417730500   -0.1155776431
     N    -1.0132782176    0.5092802685    0.0241564687
     C    -0.7285222690   -0.8516295448    0.1495062533
     O    -1.6441933261   -1.6736832019    0.1374516138
     C     0.6767285872   -1.2042114271    0.2913959155
     C     0.9546587614   -2.5628919455    0.4272446695
     C     2.1828285386   -3.1954518126    0.5826234500
     C     2.3106585079   -4.5799423278    0.7141075361
     O     3.5982331113   -4.9919792778    0.8530420231
     C     3.9437044141   -6.2900200274    0.9931887101
     C     2.9859846248   -7.2569979696    1.0075773619
     C     1.6124735387   -6.8960085231    0.8774754468
     C     1.2990476232   -5.5623682358    0.7332582006
     C     0.5666009249   -7.9334258216    0.8935703531
     C    -0.5992469152   -7.7849063991    0.1277188989
     C    -1.5873814840   -8.7622899576    0.1503575985
     C    -1.4310078892   -9.8985257701    0.9432066224
     C    -0.2772324240  -10.0554621510    1.7091930219
     C     0.7185171080   -9.0850511571    1.6796948096
     C     5.3911402695   -6.4874815139    1.0924795753
     C     6.2713156145   -5.4624251868    0.7148457122
     C     7.6455029227   -5.6548092024    0.7949254309
     C     8.1593645761   -6.8658997175    1.2545273619
     C     7.2898301742   -7.8866541652    1.6390368263
     C     5.9156724470   -7.7014668726    1.5618930663
     C     1.7063726435   -0.1855979265    0.2967248575
     O     2.9111528762   -0.4084201019    0.4120747617
     N     1.2600421816    1.1357912525    0.1615137974
     C    -0.0624500151    1.5119411929    0.0349371494
     O    -0.3811910310    2.6885786826   -0.0645136952
     C     2.2314015551    2.2198594953    0.1647990793
     H    -3.0166892618    0.0484325756   -0.1124561061
     H    -2.5265580645    1.4878278369   -1.0529046777
     H    -2.6723397351    1.5955688602    0.7151886666
     H     0.0568282456   -3.1782604768    0.4048465410
     H     3.0933621607   -2.6096492753    0.6062562321
     H     3.2760673777   -8.2979754787    1.0664133487
     H     0.2670542819   -5.2422861921    0.6583161398
     H    -0.7189675918   -6.9140199151   -0.5108647285
     H    -2.4790767896   -8.6392588525   -0.4579873279
     H    -2.2052809563  -10.6606387407    0.9616953925
     H    -0.1520940103  -10.9351468763    2.3343940201
     H     1.6054228912   -9.2087053583    2.2952318182
     H     5.8758077809   -4.5198810786    0.3511561035
     H     8.3169493556   -4.8553291895    0.4946865518
     H     9.2339160918   -7.0136116357    1.3175411725
     H     7.6838171800   -8.8291055168    2.0086046396
     H     5.2522650188   -8.4972389761    1.8868871267
     H     3.2190215925    1.7702496330    0.2402283724
     H     2.0544917646    2.8826236328    1.0155205989
     H     2.1494659279    2.7994214605   -0.7574493343
