43
-1.1478168309230823e+03 frame 62   xyz file generated by TeraChem
     C     8.3978998916    1.0224445168   -4.6544150567
     C     7.1920331267    1.3714259701   -3.8100962213
     O     7.4383097770    2.5393619717   -3.0013285956
     C     8.0774795518    2.3440078212   -1.8466628023
     O     8.4425006970    1.2538718217   -1.4430919006
     C     8.3098938758    3.5920117810   -1.0741180690
     C     7.9379896843    4.7930910271   -1.5209843439
     C     9.0188197810    3.3484264109    0.2307269596
     O     9.2208924680    4.5541663617    0.9652184809
     C     8.2612485065    4.8973275981    1.8400661944
     O     7.2557132491    4.2436208546    2.0278433650
     C     8.5753443277    6.1616615765    2.5549753972
     C     7.6561332657    6.6168395871    3.5033133850
     C     7.8928556367    7.7977380199    4.1944527936
     C     9.0625956411    8.5285798763    3.9535636448
     C     9.9914471945    8.0558607386    3.0181390659
     C     9.7471310445    6.8880417438    2.3110852992
     C     9.4087505135    9.7619499276    4.7258158051
     O    10.5840583051   10.0060744142    4.9702856538
     C     8.3353396193   10.6810334540    5.1925838946
     C     7.1168304008   10.8203951601    4.5154784506
     C     6.1766666470   11.7490577961    4.9535876266
     C     6.4389390569   12.5316206760    6.0764466809
     C     7.6516225189   12.3983731179    6.7554822263
     C     8.5993304455   11.4874838874    6.3083255008
     H     8.1526075127    0.1785112341   -5.3077800864
     H     9.2456750191    0.7360672198   -4.0255168854
     H     8.6914667351    1.8698806402   -5.2818258409
     H     6.9063026001    0.5450014730   -3.1547159157
     H     6.3370457824    1.6499037728   -4.4295281777
     H     7.4339305602    4.9041089326   -2.4748996369
     H     8.1331371315    5.6935703247   -0.9462178282
     H    10.0185636918    2.9433421257    0.0521097473
     H     8.4614315693    2.6330116086    0.8406034428
     H     6.7589083743    6.0357500791    3.6908780541
     H     7.1790774869    8.1377871360    4.9384213920
     H    10.9032989258    8.6205196674    2.8498689862
     H    10.4620313957    6.5341558032    1.5760412272
     H     6.9129793027   10.2237077346    3.6312810254
     H     5.2392508843   11.8623148813    4.4162846475
     H     5.6995965263   13.2493743976    6.4219018671
     H     7.8563962483   13.0096077515    7.6301481549
     H     9.5525079407   11.3810200162    6.8178514936
