35
-8.6101810979936272e+02 frame 53   xyz file generated by TeraChem
     C     0.8864718034   -0.2362923138    1.2895954707
     N     2.0584796197    0.0416570557    0.4873662802
     C     2.8929052246    1.0680961709    0.8245700526
     C     2.6491659350    1.8701446427    1.9667965033
     C     3.5008155845    2.9039917822    2.3062097882
     C     4.6391834997    3.2014839370    1.5327162712
     C     4.8813709147    2.4082750140    0.3948158009
     C     4.0369398040    1.3718103401    0.0459499297
     C     5.5127081990    4.2585944944    1.8882261511
     C     6.2689240809    5.1648790296    2.1936761206
     C     7.1500051965    6.2159468685    2.5550569462
     C     8.2750909936    6.5122807788    1.7626338937
     C     9.1424477555    7.5310102778    2.1250894895
     C     8.9105483097    8.2848181481    3.2828483184
     C     7.7790222643    8.0078114598    4.0606445761
     C     6.9141980069    6.9854689267    3.7118776207
     C     9.7933516512    9.3969897493    3.7245262565
     O     9.4354059339   10.2582294774    4.5003308855
     O    11.0455324995    9.4381504888    3.2362925011
     C     2.3270084412   -0.7556067409   -0.6905009411
     H     0.1981219063    0.6194303332    1.3165413791
     H     1.1543442936   -0.4896053212    2.3240524782
     H     0.3548130928   -1.0855763782    0.8595800176
     H     1.7847725561    1.6779100661    2.5920207558
     H     3.2883937450    3.5009125379    3.1888877482
     H     5.7517690722    2.6163818184   -0.2213275997
     H     4.2631750289    0.7880074631   -0.8388317648
     H     8.4570752300    5.9380955404    0.8596213378
     H     9.9836053290    7.7471904307    1.4703908382
     H     7.5963013900    8.6049858004    4.9484850021
     H     6.0465321989    6.7685753995    4.3272438682
     H    11.2593266804    8.6313626527    2.7413694818
     H     1.5611359045   -1.5263718337   -0.7798105488
     H     3.3047108551   -1.2512083807   -0.6279013116
     H     2.3101120612   -0.1488063390   -1.6060621761
