78
-1.7277685038816344e+03 frame 113   xyz file generated by TeraChem
     C     3.5463325409   -2.7471651516    0.5290380934
     C     2.4561774481   -2.4708253173   -0.5103544118
     C     3.0295368676   -1.9396380892   -1.8241538214
     C     4.3991188081   -1.7521747038   -2.0366592467
     C     4.8900532721   -1.2787144365   -3.2502934023
     C     4.0287696146   -0.9668301686   -4.3085207763
     C     2.6530129098   -1.1465850487   -4.0987437325
     C     2.1706124601   -1.6219828024   -2.8874238400
     C     4.5473764719   -0.4729502087   -5.5990522867
     C     5.7896207175   -0.9039372425   -6.0915156690
     C     6.2781705917   -0.4481959001   -7.3049840768
     C     5.5389970439    0.4606561788   -8.0815689564
     C     4.2937659031    0.8968384616   -7.5934421674
     C     3.8145243272    0.4375718814   -6.3780540963
     C     6.0221141750    0.9500259700   -9.3572896839
     N     7.2397416311    0.5739854568   -9.8878473964
     C     7.5141043944    1.1613893239  -11.1339314771
     O     8.5458363122    0.9557108034  -11.7658370994
     C     6.3371745938    1.9744978249  -11.3808452926
     C     5.4494911033    1.8202888126  -10.2718151304
     C     4.2689500834    2.6270330466  -10.5224942543
     O     3.2381842426    2.8350742438   -9.8896481473
     N     4.5390260880    3.2066641814  -11.7727517277
     C     5.7585860853    2.8342210040  -12.3015299213
     C     6.2325456218    3.3128789533  -13.5846577778
     C     5.4696205355    4.1866953164  -14.3781546672
     C     5.9430708397    4.6267970840  -15.6029629716
     C     7.1961665868    4.2195696427  -16.0881300483
     C     7.9547738045    3.3469600556  -15.2906193975
     C     7.4882138725    2.8992949013  -14.0656697636
     C     7.6932888232    4.6954048889  -17.3940648924
     C     7.3630788152    5.9677529807  -17.8744768484
     C     7.8228254905    6.4140667402  -19.1103649190
     C     8.6314175620    5.6128724837  -19.9228991785
     C     8.9631337017    4.3402248088  -19.4343104705
     C     8.5090774577    3.8893583423  -18.2025942969
     C     9.1518566010    6.0674631642  -21.2867180930
     C     8.6667296751    7.4719184494  -21.6557438179
     C    10.6893405267    6.0773049293  -21.2658384294
     C     8.6652262511    5.0909350100  -22.3702841724
     C     1.7058591378   -3.7856885438   -0.7809315575
     C     1.4772420119   -1.4399396688    0.0750495304
     H     4.2564816703   -3.5045997852    0.1782647330
     H     3.0840787920   -3.1233645078    1.4483971019
     H     4.1063999985   -1.8401332240    0.7841824840
     H     5.1089595216   -1.9709180987   -1.2454460855
     H     5.9606931205   -1.1272015201   -3.3620933398
     H     1.9526113547   -0.9378660741   -4.9034307279
     H     1.0979988149   -1.7578519211   -2.7741875529
     H     6.3707100319   -1.6274827226   -5.5270566284
     H     7.2390810045   -0.8218186406   -7.6460224644
     H     3.7093923428    1.6057068817   -8.1757390677
     H     2.8607566358    0.8090743873   -6.0139382436
     H     7.9026422170   -0.0512085454   -9.4518967117
     H     3.8777428347    3.8349656436  -12.2066638081
     H     4.4907454024    4.5261120558  -14.0529130998
     H     5.3188049914    5.2799777813  -16.2055892731
     H     8.9388039158    3.0314471015  -15.6260261741
     H     8.0969445902    2.2284976655  -13.4635161861
     H     6.7566667156    6.6338216939  -17.2661339738
     H     7.5418272683    7.4116091317  -19.4324924545
     H     9.5846568968    3.6780829060  -20.0319042135
     H     8.7696052267    2.8855337294  -17.8769982142
     H     9.0133085883    8.2245236949  -20.9382197846
     H     7.5730728737    7.5232401176  -21.7074233451
     H     9.0609144705    7.7450443033  -22.6409556173
     H    11.0653661150    6.7724493150  -20.5063653736
     H    11.0750167941    6.3961263249  -22.2416626376
     H    11.0985260691    5.0843711361  -21.0502265922
     H     7.5702446631    5.0743496775  -22.4179268330
     H     9.0122653938    4.0693155364  -22.1828995058
     H     9.0456639123    5.4003380092  -23.3511840404
     H     2.3837979523   -4.5453350045   -1.1868287543
     H     0.8860810363   -3.6456494257   -1.4936401950
     H     1.2786963190   -4.1730710287    0.1520151613
     H     1.9817760505   -0.4865048984    0.2691041557
     H     1.0680061008   -1.8096506651    1.0228309523
     H     0.6381602236   -1.2496469608   -0.6024360831
