197
-6.5092461274690395e+03 frame 78   xyz file generated by TeraChem
     C    12.8538295399   -0.9261610324   14.7642599739
     N    13.4495517760   -2.0802067290   14.1193228517
     C    13.2866201309   -2.2168532106   12.7324407362
     C    12.8335033960   -1.1630654849   11.9255830737
     C    12.6391674341   -1.3368556141   10.5624914056
     C    12.9212857318   -2.5574986537    9.9310723002
     C    13.3968597737   -3.6035071280   10.7385303383
     C    13.5636368590   -3.4446070840   12.1074076897
     S    14.0298257068   -4.8271947782   13.1105265452
     C    14.9837987977   -3.9586208819   14.3239098634
     C    14.5621606795   -2.6818614249   14.7348631275
     C    15.2724978397   -2.0476567311   15.7614733872
     C    16.3513076411   -2.6816147988   16.3745541239
     C    16.7661410248   -3.9409529352   15.9542953084
     C    16.0861869791   -4.5705008402   14.9135307249
     C    12.7348109864   -2.7930158279    8.5020613532
     C    12.5229422368   -1.8496892307    7.5618539393
     C    12.2923494779   -2.0737238649    6.1390782267
     C    12.0145883078   -3.3351852198    5.5825102880
     C    11.7767671985   -3.4902881996    4.2269225228
     C    11.8197919213   -2.3865844941    3.3602647254
     C    12.1043969837   -1.1248494130    3.8986506094
     C    12.3215627087   -0.9777486306    5.2602568526
     N    11.5606306245   -2.5419757359    1.9828410442
     C    10.8310009116   -1.5557871815    1.2837013041
     C    11.2065403931   -1.1823158001   -0.0161729510
     C    10.4999325157   -0.2105707364   -0.7043094071
     C     9.3945953241    0.4400349693   -0.1258911718
     C     9.0368697184    0.0606053937    1.1788154708
     C     9.7289518536   -0.9225547038    1.8708698836
     C     8.6225342529    1.4782621314   -0.7993750543
     C     8.7592275637    1.8804986155   -2.0795017407
     C     7.9998596017    2.9341576225   -2.7446216799
     C     7.0870751914    3.7757646453   -2.0903232925
     C     6.4004788483    4.7707327452   -2.7713390981
     C     6.5709680462    4.9543972580   -4.1518054655
     C     7.4783359392    4.1105100875   -4.8140114097
     C     8.1905114079    3.1416359046   -4.1204102958
     S     7.6318058717    4.2356646149   -6.5733477900
     C     7.4518057374    5.9907530690   -6.7209000576
     C     6.5512743640    6.6563360326   -5.8710172810
     N     5.8729513030    5.9387709988   -4.8678946475
     C     4.7453173786    6.5793516850   -4.2196412038
     C     6.3578573439    8.0306785477   -6.0584428295
     C     7.0221925144    8.7091722273   -7.0783946696
     C     7.9170126321    8.0422264790   -7.9084046309
     C     8.1408882953    6.6808594723   -7.7138994488
     C    11.9950939776   -3.6992353061    1.3066663788
     C    11.1692810505   -4.3332789344    0.3694118174
     C    11.6057291362   -5.4728302400   -0.2878494334
     C    12.8713229637   -6.0329847737   -0.0404089318
     C    13.6891328533   -5.3853533234    0.9051622035
     C    13.2653440250   -4.2422789763    1.5601359690
     C    13.2562842886   -7.2374287692   -0.7596918221
     C    14.4497307892   -7.8696254756   -0.7020260897
     C    14.8017796053   -9.0835752082   -1.4129168608
     C    13.9270919997   -9.8783946971   -2.1398999471
     C    14.3174562592  -11.0561634793   -2.8088754905
     C    15.6159477711  -11.5456481075   -2.8057444219
     C    16.5580728804  -10.7552618019   -2.0670258200
     C    16.1577831372   -9.5495564580   -1.3803796373
     N    17.1661394129   -8.9479656781   -0.7433809872
     S    18.4930265141   -9.8511508228   -1.0075667384
     N    17.8578671212  -11.0310316562   -1.9298179377
     C    16.0669720326  -12.7595130261   -3.4580503656
     C    15.2962347320  -13.6142644052   -4.1670755154
     C    15.7277239199  -14.8485993413   -4.8041058544
     C    17.0451969728  -15.3422241458   -4.7471322999
     C    17.3944040561  -16.5365648813   -5.3517780810
     C    16.4398282049  -17.2911190735   -6.0539682113
     C    15.1275572949  -16.8058761959   -6.1316849965
     C    14.7846618810  -15.6145893014   -5.5119195872
     N    16.7903820243  -18.5164605042   -6.6540841770
     C    15.8977718722  -19.6088809152   -6.5932858379
     C    15.7340647251  -20.4619452969   -7.6956896523
     C    14.8651241471  -21.5386749128   -7.6326464681
     C    14.1119767239  -21.8066136510   -6.4747362855
     C    14.2798967545  -20.9363598928   -5.3844370604
     C    15.1584617525  -19.8645304312   -5.4320478773
     C    13.1779740277  -22.9196580269   -6.3480086189
     C    12.9391447088  -23.8859816544   -7.2577035029
     C    11.9926905874  -24.9888831104   -7.1215110340
     C    11.1119398376  -25.1368887995   -6.0385505703
     C    10.2291994286  -26.2040491451   -5.9620895564
     C    10.2044142323  -27.1957781616   -6.9541041491
     C    11.0837069811  -27.0544566565   -8.0405835671
     C    11.9398404326  -25.9652461394   -8.1297234691
     S    11.1566910643  -28.3444135498   -9.2523961606
     C     9.4397293206  -28.7802924294   -9.2686734610
     C     8.7192511026  -28.7493347554   -8.0620867580
     N     9.3438035067  -28.3010470153   -6.8840053445
     C     8.6897912361  -28.5775828229   -5.6197768553
     C     7.3850993605  -29.1744760479   -8.0756728194
     C     6.8012792179  -29.6437157463   -9.2505751808
     C     7.5215336155  -29.6661473906  -10.4402042607
     C     8.8404212328  -29.2160942337  -10.4469364055
     C    18.0457753846  -18.6667952324   -7.2796346909
     C    18.7757328927  -19.8578761233   -7.1416117550
     C    20.0084810876  -20.0058739798   -7.7543395295
     C    20.5752498650  -18.9725986956   -8.5229183213
     C    19.8382197341  -17.7822431185   -8.6402148299
     C    18.5949203637  -17.6297646861   -8.0440931856
     C    21.8722105631  -19.0728954681   -9.1833794380
     C    22.6322587868  -20.1815030106   -9.2938496513
     C    23.9372308455  -20.2873535356   -9.9377439066
     C    24.5584934761  -21.5405919623  -10.0242238892
     C    25.7969933512  -21.7069858152  -10.6329901459
     C    26.4905964521  -20.6089412354  -11.1548289431
     C    25.8779841400  -19.3438603453  -11.0592422781
     C    24.6260535513  -19.1904629741  -10.4853814888
     S    26.7858167115  -17.9172303909  -11.5853886963
     C    27.6172016665  -18.6356172150  -12.9733547479
     C    28.0538076983  -19.9692432977  -12.8887818422
     N    27.7566353069  -20.7329442861  -11.7450076632
     C    28.4810985895  -21.9732738423  -11.5474243390
     C    28.7859435564  -20.4953442833  -13.9604353603
     C    29.0951068976  -19.7046629025  -15.0653275654
     C    28.6527554182  -18.3881432794  -15.1415615784
     C    27.8973371656  -17.8617193095  -14.0957491713
     H    11.8433043404   -0.7853113029   14.3743383410
     H    13.4247766268    0.0009831910   14.6116051695
     H    12.7796961294   -1.1194773062   15.8367412490
     H    12.6209268395   -0.1949809038   12.3661590158
     H    12.2561994958   -0.5004336628    9.9849245906
     H    13.6267276069   -4.5658523414   10.2866196795
     H    14.9866917009   -1.0525837877   16.0850459461
     H    16.8763092599   -2.1718298841   17.1777439944
     H    17.6124085692   -4.4320777833   16.4255076070
     H    16.3962863524   -5.5523888757   14.5658170577
     H    12.7931358807   -3.8388824079    8.2011122345
     H    12.5307515831   -0.8008001696    7.8582458263
     H    11.9469267570   -4.2094120951    6.2242430500
     H    11.5369351459   -4.4728238939    3.8315383540
     H    12.1477500256   -0.2581389212    3.2460253316
     H    12.5359367276    0.0124149182    5.6566576951
     H    12.0682571459   -1.6540157615   -0.4794375427
     H    10.8321131116    0.0640459900   -1.7015290044
     H     8.1835121343    0.5399799498    1.6535860637
     H     9.4186171710   -1.2022861557    2.8731821928
     H     7.8618939678    1.9495409389   -0.1772277204
     H     9.4954898101    1.3866527006   -2.7133634008
     H     6.9219777392    3.6757423748   -1.0214252021
     H     5.7306539828    5.4182635921   -2.2158026572
     H     8.8950718265    2.5159964557   -4.6638781735
     H     4.1253230598    7.0599951752   -4.9796582756
     H     5.0436382553    7.3338947665   -3.4776590068
     H     4.1416848833    5.8168654081   -3.7224661079
     H     5.6886171398    8.5803920109   -5.4054901370
     H     6.8433950204    9.7730054527   -7.2084564007
     H     8.4417302891    8.5718705283   -8.6980777873
     H     8.8401398460    6.1402746535   -8.3463639148
     H    10.1802865010   -3.9333744203    0.1663948399
     H    10.9454915966   -5.9554720853   -1.0052376332
     H    14.6784273469   -5.7744123929    1.1293477394
     H    13.9193086841   -3.7559123536    2.2780044912
     H    12.4780961454   -7.6388701861   -1.4085124523
     H    15.2472277338   -7.4572044452   -0.0879293094
     H    12.8787091755   -9.5993645037   -2.1963238929
     H    13.5451206944  -11.6024093374   -3.3430322503
     H    17.1266983087  -12.9708714973   -3.3347028993
     H    14.2360018361  -13.3934491979   -4.2881295239
     H    17.8095605170  -14.7949466027   -4.2025518667
     H    18.4134479665  -16.9034650856   -5.2738742859
     H    14.3779470759  -17.3690004483   -6.6795244090
     H    13.7601436755  -15.2559975427   -5.5843601255
     H    16.2908758508  -20.2696975365   -8.6082626193
     H    14.7583020916  -22.1695296208   -8.5108278628
     H    13.7175796864  -21.1187701976   -4.4712465872
     H    15.2768532996  -19.2210616629   -4.5653240902
     H    12.6387643272  -22.9437554150   -5.4012354819
     H    13.4939845903  -23.8803425034   -8.1956209943
     H    11.0936200230  -24.3957918872   -5.2448603734
     H     9.5452753702  -26.2618738921   -5.1222488836
     H    12.5997079646  -25.8814232533   -8.9902319043
     H     8.3367337803  -29.6112790759   -5.6228734373
     H     7.8371513966  -27.9140875828   -5.4153837753
     H     9.4189519634  -28.4706470748   -4.8135201866
     H     6.7942251942  -29.1374888055   -7.1669332446
     H     5.7680806633  -29.9795268947   -9.2297044047
     H     7.0652928824  -30.0246276011  -11.3582457628
     H     9.4194183477  -29.2181883825  -11.3666755904
     H    18.3719315925  -20.6657413925   -6.5385883137
     H    20.5512070826  -20.9357216211   -7.6078161073
     H    20.2458675429  -16.9643156689   -9.2302766678
     H    18.0431859242  -16.7028143214   -8.1697733072
     H    22.2244495095  -18.1423492493   -9.6279932671
     H    22.2621390319  -21.1179315589   -8.8771200728
     H    24.0515055030  -22.4130800052   -9.6187895608
     H    26.2209611272  -22.7029465526  -10.7017866208
     H    24.1962269617  -18.1935250290  -10.4432517753
     H    29.5368118334  -21.8057561284  -11.7714105999
     H    28.1127741734  -22.7966997979  -12.1762043556
     H    28.3988905419  -22.2684384345  -10.4989650594
     H    29.1163201048  -21.5282842839  -13.9383801250
     H    29.6757602035  -20.1348726440  -15.8767535082
     H    28.8862584673  -17.7734251090  -16.0058607157
     H    27.5361298189  -16.8374244965  -14.1370413101
