53
-2.0004753961838414e+03 frame 39   xyz file generated by TeraChem
     C     0.1071328322    2.2791223372   -0.9730893713
     N     0.1202887233    0.9528032993   -0.3867483019
     C     1.3203051602    0.5017549897    0.1866992737
     C     2.3847290791    1.3624618704    0.4475334884
     C     3.5906627476    0.8793990118    0.9761983884
     C     4.7163998905    1.7754438239    1.2324452368
     N     4.6686768856    3.0313680563    0.9839141903
     C     5.8039192899    3.8230043275    1.1944922268
     C     7.1210596111    3.3791378315    1.0179838235
     C     8.1956104445    4.2374374904    1.2188951041
     C     7.9972245746    5.5592973505    1.6382261736
     C     6.6729999946    6.0049821250    1.7994970139
     C     5.5989199536    5.1636731422    1.5484225801
     S     6.3929339866    7.6431122774    2.4094357829
     C     7.7429350950    8.4546905629    1.5995286055
     C     8.9630840553    7.7700347026    1.4601863091
     N     9.0672889528    6.4336085218    1.8870784138
     C    10.3929823310    5.8617543491    2.0178691226
     C    10.0471030389    8.4558706379    0.8988415838
     C     9.9215780912    9.7893763251    0.5148915728
     C     8.7073987890   10.4547404353    0.6489500285
     C     7.6126132143    9.7749881429    1.1793448435
     C     3.7225646892   -0.4780455547    1.2799860235
     C     2.6588705753   -1.3433260563    1.0498412595
     C     1.4762426888   -0.8668885065    0.4928416393
     S     0.1873826591   -1.9926903142    0.0612421356
     C    -1.2007822742   -0.9403542828    0.3802807206
     C    -1.0965372890    0.4305344287    0.0887204318
     C    -2.2279944279    1.2337681022    0.2759558977
     C    -3.4297789255    0.6771790567    0.7091745781
     C    -3.5199821357   -0.6804168136    0.9984469457
     C    -2.3927682825   -1.4854019614    0.8477873024
     H     1.0118236882    2.4100335624   -1.5710733173
     H     0.0575723495    3.0845562209   -0.2264832618
     H    -0.7556547764    2.3612737416   -1.6377330133
     H     2.3073404444    2.4249288768    0.2453244996
     H     5.6067567704    1.3006138430    1.6668256588
     H     7.3124094304    2.3668704876    0.6729137334
     H     9.1999551268    3.8718436562    1.0330324369
     H     4.5818144609    5.5291097126    1.6595461148
     H    11.0423783241    6.5831832325    2.5189710411
     H    10.8473944295    5.5885715112    1.0543728613
     H    10.3314571618    4.9681244937    2.6430003320
     H    10.9959099221    7.9497225748    0.7566818284
     H    10.7828439541   10.3012832124    0.0943361957
     H     8.6062186995   11.4914581329    0.3417675328
     H     6.6529995966   10.2735089394    1.2880539461
     H     4.6529140874   -0.8554905448    1.6963953345
     H     2.7479912268   -2.4001478939    1.2856328101
     H    -2.1756553498    2.3001238500    0.0843034369
     H    -4.2958484683    1.3216308885    0.8325782059
     H    -4.4543440030   -1.1133356679    1.3432831608
     H    -2.4376186150   -2.5471130142    1.0757346450
