53
-2.0004641302566347e+03 frame 48   xyz file generated by TeraChem
     C     4.5450963259    1.8864323003    2.2554820848
     N     4.6038480347    1.0048270219    1.0983589120
     C     3.4479758223    0.4561305435    0.5277671400
     C     2.2581102302    1.2022773899    0.3637267198
     C     1.0911148839    0.5584752695   -0.0790503199
     C     1.1054029130   -0.7737763070   -0.4533898238
     C     2.3049859002   -1.4849825319   -0.4048027053
     C     3.4539496547   -0.8831476910    0.0963723831
     S     4.9236792180   -1.8513398697    0.2891884027
     C     6.1358429579   -0.5804708812    0.0639638010
     C     5.8657305277    0.7047142273    0.5582988536
     C     6.8795510683    1.6672015017    0.5129711974
     C     8.1304612457    1.3511684681   -0.0118242902
     C     8.3803770891    0.0818604456   -0.5261357510
     C     7.3745626119   -0.8820943164   -0.4963296596
     C     2.2469742327    2.6556187567    0.5407783710
     N     1.1614714026    3.3161844199    0.7092219995
     C     1.2123928656    4.7158286077    0.7161167258
     C     2.0715174085    5.4712693218   -0.0922596395
     C     2.0481033387    6.8606554260   -0.0547010824
     C     1.1941940143    7.5453956612    0.8190906734
     C     0.3227837454    6.7828914970    1.6177071484
     C     0.3075421562    5.3977006729    1.5410880886
     S    -0.7056663821    7.6165513689    2.7929625925
     C    -1.0602378749    9.0697482061    1.8436898669
     C    -0.0534087176    9.6082819425    1.0234446763
     N     1.1827390199    8.9467182910    0.9095479242
     C     2.2922237558    9.6728168766    0.3231296836
     C    -0.3194986861   10.8042554387    0.3458576383
     C    -1.5417379052   11.4539474371    0.5064778529
     C    -2.5335221780   10.9094014327    1.3156153315
     C    -2.2924686771    9.7040042037    1.9719747686
     H     3.5653301009    1.7849399035    2.7272908533
     H     4.7074841971    2.9439429306    2.0172638996
     H     5.3106202302    1.5758747341    2.9748597874
     H     0.1871120295    1.1533672806   -0.1674835764
     H     0.2023584353   -1.2553866542   -0.8163249160
     H     2.3465049878   -2.5201686609   -0.7333245756
     H     6.6869685236    2.6667951761    0.8901718367
     H     8.9074318882    2.1105086030   -0.0282589645
     H     9.3516711129   -0.1624668327   -0.9462120418
     H     7.5560172152   -1.8813633354   -0.8834435186
     H     3.2179814406    3.1587949743    0.4751523759
     H     2.7307185124    4.9708871222   -0.7962732763
     H     2.6962158224    7.4151254448   -0.7249916077
     H    -0.3846929694    4.8247910313    2.1517505080
     H     2.3190954868   10.6796251236    0.7461465915
     H     2.2324312848    9.7518566260   -0.7721224276
     H     3.2240571254    9.1677729124    0.5875051067
     H     0.4280549243   11.2329783556   -0.3128264742
     H    -1.7168331574   12.3874494250   -0.0213260376
     H    -3.4892183267   11.4111685378    1.4353156538
     H    -3.0553818950    9.2574611111    2.6042469192
