53
-2.0283317752239418e+03 frame 64   xyz file generated by TeraChem
     C     2.2884265767   -0.9320319391    1.2617333633
     C     2.9361146829   -0.1934801999    0.1117527081
     O     3.4206906929   -1.1112368268   -0.8912926234
     C     4.6363875863   -1.6159491513   -0.7048194984
     O     5.3244980535   -1.4141882839    0.2818799159
     C     5.0688881887   -2.5335027453   -1.7731506985
     S     6.2184288687   -3.7405520333   -1.2655783176
     C     6.1460458001   -4.5015127044   -2.8283603026
     C     5.2626219607   -3.8349450038   -3.7101762790
     C     4.6733099925   -2.6731021650   -3.0896018697
     N     3.7938141140   -1.8561450740   -3.7886402739
     N     3.9575962813   -0.6183165288   -3.5816674430
     C     3.0539700225    0.2190465174   -4.2135489065
     C     2.0148665743   -0.1999510960   -5.0710400752
     C     1.1733547744    0.7165066206   -5.6553532655
     C     1.3190028405    2.1129886333   -5.4088130851
     C     2.3682598507    2.5252474171   -4.5457083766
     C     3.2101711079    1.5950429424   -3.9740258107
     N     0.4841010510    3.0137610637   -5.9848085100
     C    -0.5687346949    2.5726744480   -6.8801670739
     C     0.6534137608    4.4313195107   -5.7303141854
     C     5.1531644179   -4.4013340152   -5.0006134140
     C     5.8897818936   -5.5313853121   -5.2905119624
     C     6.7427612226   -6.0948964614   -4.3163544722
     N     6.8687919597   -5.5795092892   -3.0907287798
     C     7.5339425723   -7.2717930886   -4.6076392486
     C     8.4260138728   -7.9952665274   -3.8613377379
     C     8.8930975157   -9.0429594958   -4.7015307296
     C     8.2541143365   -8.8832686807   -5.8946769274
     O     7.4269284133   -7.8151548250   -5.8526371114
     C     4.2556153748   -3.8379825423   -6.0773453954
     F     4.5818845010   -2.5751865293   -6.3894909699
     F     4.3477431760   -4.5511829450   -7.2120636650
     F     2.9663412127   -3.8567590422   -5.7070271092
     H     1.8638792776   -0.2090038520    1.9662531559
     H     3.0222140377   -1.5435164899    1.7945004903
     H     1.4813482770   -1.5781469324    0.9024872059
     H     3.7672759788    0.4305799738    0.4491640258
     H     2.2154443110    0.4275025062   -0.4243055698
     H     1.8980305756   -1.2593344839   -5.2785156449
     H     0.3896521835    0.3633288435   -6.3157285974
     H     2.5189302733    3.5767534884   -4.3316486396
     H     4.0140191715    1.9160189302   -3.3165523373
     H    -0.1606185308    2.0346172772   -7.7447472428
     H    -1.1103500571    3.4448594268   -7.2457583498
     H    -1.2823568406    1.9148594266   -6.3686249122
     H     1.6361150079    4.7857906144   -6.0666887262
     H     0.5519581336    4.6608708274   -4.6622287419
     H    -0.1141125668    4.9835006609   -6.2723788265
     H     5.8216778283   -5.9927989917   -6.2671056803
     H     8.7072642463   -7.7928698803   -2.8374136298
     H     9.6095142230   -9.8143473623   -4.4542865954
     H     8.2773447000   -9.4230442134   -6.8302113472
