50
-1.5471465704332772e+03 frame 68   xyz file generated by TeraChem
     C     0.4851555900    1.9548780681   -1.1459428094
     N     0.4180927854    1.0839577624    0.0187253206
     C     1.5690407202    0.5381571265    0.6016957791
     C     2.7625985275    1.2796120074    0.7608195520
     C     3.9238549440    0.6355088764    1.2183170214
     C     3.9006157401   -0.6908549522    1.6119771747
     C     2.6973493753   -1.3960207071    1.5670087261
     C     1.5543328025   -0.7952574000    1.0514475644
     S     0.0819334722   -1.7599745920    0.8631367146
     C    -1.1259756461   -0.4814633755    1.0658299374
     C    -0.8477130090    0.7961683447    0.5567103822
     C    -1.8575648091    1.7635155044    0.5852787111
     C    -3.1124580067    1.4593299923    1.1075797386
     C    -3.3705415271    0.1976051689    1.6362410338
     C    -2.3687003298   -0.7708194014    1.6236438240
     C     2.7860468841    2.7304805773    0.5633717692
     N     3.8781845167    3.3796306390    0.3961913062
     C     3.8433873996    4.7802469933    0.3632263225
     C     3.0007840710    5.5439551810    1.1926404409
     C     3.0169494331    6.9335193807    1.1420405201
     C     3.8806679751    7.5710234725    0.2519451460
     C     4.7374620885    6.8123414613   -0.5694257543
     C     4.7352643789    5.4299408533   -0.5059742049
     C     5.5767162626    7.7266370591   -1.4252026093
     C     5.1137904665    9.0980039552   -1.0032788118
     C     4.1157862418    8.9900427263   -0.0155417817
     C     3.5314175208   10.1326040914    0.5310134158
     C     3.9540950653   11.3818907240    0.0808864588
     C     4.9445864179   11.4892143368   -0.8991788904
     C     5.5304389291   10.3456784425   -1.4471941145
     H     1.4660706284    1.8448188806   -1.6135029858
     H     0.3264034068    3.0151375724   -0.9177691372
     H    -0.2793122910    1.6412679471   -1.8650965946
     H     4.8307391416    1.2267069158    1.3018893399
     H     4.7991992643   -1.1721359993    1.9862143822
     H     2.6483547492   -2.4263141018    1.9095680979
     H    -1.6590343515    2.7576553217    0.1969645001
     H    -3.8861098480    2.2222146136    1.1107764487
     H    -4.3450092560   -0.0373482636    2.0543007205
     H    -2.5562381663   -1.7643589424    2.0224023427
     H     1.8189482872    3.2428180781    0.6117432992
     H     2.3568468039    5.0367574951    1.9062506874
     H     2.3691422560    7.5088110392    1.7990633298
     H     5.3976333939    4.8285809966   -1.1237857307
     H     5.4129725777    7.5488309290   -2.4966028963
     H     6.6509401061    7.5809971952   -1.2490386980
     H     2.7604877249   10.0544425506    1.2939917832
     H     3.5090146885   12.2824070062    0.4962765850
     H     5.2619455450   12.4719850843   -1.2380716158
     H     6.3009185007   10.4355646642   -2.2095941875
