88
-2.9164794293306813e+03 frame 45   xyz file generated by TeraChem
     C     2.9953870774   -0.0460277158   -1.1304154315
     C     1.8825756922   -0.2708504817   -0.1148994616
     N     2.3580781922   -0.8731462390    1.1165817938
     C     2.4858763716   -2.2262635541    1.3528615600
     C     2.1184110716   -3.3090865981    0.5497514911
     C     2.3480621905   -4.5855746732    1.0361620411
     C     2.9453196170   -4.8156611783    2.2979745096
     C     3.3110412123   -3.7201888200    3.0874872855
     C     3.0839106530   -2.4280283972    2.6214799202
     C     3.3499784063   -1.1141578557    3.1586165515
     C     2.8900767672   -0.1878003550    2.1893981959
     C     3.0037020245    1.1884932701    2.3969014320
     C     3.5806711753    1.6197077809    3.5809017257
     C     4.0446923110    0.7180495125    4.5662408358
     C     3.9168949766   -0.6583409873    4.3450620720
     C     4.6631681928    1.2007817771    5.8007624615
     C     5.5650377888    0.5470801189    6.6121193335
     C     5.9648549241    1.3004380751    7.7388839967
     C     5.3710120200    2.5420767912    7.7954271159
     S     4.2934184355    2.7689767541    6.4507949878
     C     5.4572980214    3.6073418019    8.7710637002
     N     4.5782950715    4.5897888514    8.8274342850
     C     4.9754567059    5.3776972057    9.8827435285
     C     6.1346687401    4.8408146254   10.4806506872
     N     6.4303646431    3.7048065530    9.7478976995
     C     7.5947443592    2.9044392104    9.9294086203
     C     7.6882286744    2.0685590172   11.0411484634
     C     8.8331415413    1.2955598293   11.2201356495
     C     9.8715578250    1.3568852475   10.2924990705
     C     9.7714504048    2.2000041959    9.1862913780
     C     8.6355318115    2.9829751782    9.0042360591
     C     6.7656500342    5.4354652302   11.5708913676
     C     6.1879799894    6.5999240841   12.0637010953
     C     5.0274218426    7.1479306438   11.4861078221
     C     4.4096193013    6.5508267121   10.3956664211
     C     3.1780816429   -6.1883641736    2.7460830806
     C     3.3361507601   -7.3229119440    1.9796672627
     C     3.5596041528   -8.4939325375    2.7393896490
     C     3.5729977986   -8.2615946422    4.0967087205
     S     3.2880796020   -6.5809430543    4.4347848949
     C     3.7271723587   -9.1552802084    5.2244524357
     N     3.3620017243   -8.8225933363    6.4474859350
     C     3.6453617065   -9.9205368697    7.2265979246
     C     4.1958928451  -10.9497438616    6.4347268121
     N     4.2442712082  -10.4351388045    5.1504525331
     C     4.8558512610  -11.0827383717    4.0391358706
     C     4.2443255206  -12.1986442898    3.4693651925
     C     4.8552377031  -12.8370597093    2.3923188534
     C     6.0623211403  -12.3579657994    1.8866795758
     C     6.6689274337  -11.2437255456    2.4655185405
     C     6.0724774450  -10.6070223786    3.5494583496
     C     4.5900417987  -12.1771546665    6.9625021857
     C     4.4064538475  -12.3536773866    8.3291825489
     C     3.8525599579  -11.3416551210    9.1352138409
     C     3.4668069868  -10.1201019823    8.6003786894
     H     2.5865246479    0.4044837869   -2.0407138814
     H     3.4736658449   -0.9933850230   -1.3995118733
     H     3.7605909376    0.6256392443   -0.7278859340
     H     1.1064099415   -0.9226745967   -0.5270537755
     H     1.3937665109    0.6738491547    0.1426645752
     H     1.6590373871   -3.1672258901   -0.4238543936
     H     2.0446764507   -5.4371049825    0.4343524098
     H     3.7933891333   -3.8724335987    4.0503314792
     H     2.6676343711    1.9068648513    1.6553789113
     H     3.6984995594    2.6884158111    3.7417805201
     H     4.2449693421   -1.3666657056    5.1010646367
     H     5.9477512919   -0.4438109744    6.3921912841
     H     6.6623545832    0.9336658632    8.4819489338
     H     6.8651737097    2.0232790660   11.7486006987
     H     8.9097202114    0.6408181487   12.0836078501
     H    10.7608409769    0.7485949829   10.4324909239
     H    10.5822274030    2.2536392049    8.4652235144
     H     8.5443725044    3.6492196621    8.1513134249
     H     7.6619240193    5.0121355680   12.0144675202
     H     6.6442471026    7.0978899910   12.9147927256
     H     4.6090420317    8.0592379363   11.9046385416
     H     3.5155348585    6.9738970386    9.9465245628
     H     3.3164431636   -7.3127323990    0.8951103741
     H     3.6995413028   -9.4724174666    2.2959538459
     H     3.2969046817  -12.5526128020    3.8657467309
     H     4.3820278600  -13.7065856697    1.9449729405
     H     6.5327964207  -12.8546916893    1.0426984883
     H     7.6132824015  -10.8723484431    2.0776588959
     H     6.5367657189   -9.7431995385    4.0162958529
     H     5.0178434698  -12.9572204693    6.3399010518
     H     4.6982283425  -13.2958290592    8.7850218149
     H     3.7256976874  -11.5238294755   10.1989131692
     H     3.0425674360   -9.3358113271    9.2208798116
