55
-2.0009403987215087e+03 frame 49   xyz file generated by TeraChem
     C     1.4681416096    0.8175377489    1.4249717019
     C     2.3044659332    0.2873804157    2.5777550647
     N     3.0718328269   -0.9090971974    2.2028265683
     C     4.3355741603   -0.6480822480    1.6172322836
     O     4.6861419739    0.5224205854    1.4771080118
     C     5.1130252428   -1.7941406522    1.2332258993
     C     6.3831528518   -1.6944752107    0.6507301757
     C     7.1205981289   -0.5660387218    0.3106806408
     C     8.3867995791   -0.6979324114   -0.2602620355
     C     9.2036737205    0.3610676994   -0.6510109700
     C    10.4635967968    0.1568667656   -1.2075451588
     C    11.2803001787    1.1953842425   -1.6561405863
     C    12.5516575030    1.1540932395   -2.2321680175
     S    13.1474859300    2.6018465658   -3.0185843769
     C    14.6400823790    1.8106007688   -3.4512453992
     C    14.6386326880    0.4871684633   -2.9911871416
     N    13.4752827509    0.1589164284   -2.2947640454
     C    13.3507287262   -1.1269883533   -1.6083453398
     C    12.8200356444   -2.2332377877   -2.5073027890
     C    15.7355851067   -0.3407057445   -3.2348607855
     C    16.8159766651    0.1870010776   -3.9343695050
     C    16.8135656790    1.5094478598   -4.3874923873
     C    15.7210753037    2.3372734010   -4.1486956825
     C     4.5973814558   -3.1265457598    1.4383859492
     O     5.2000304774   -4.1563342204    1.1403841151
     N     3.3122045599   -3.2303446241    2.0147641535
     C     2.5360282082   -2.1582378382    2.3712328365
     S     0.9818581672   -2.3720247709    2.9968385476
     C     2.8051982871   -4.6020183131    2.1671649929
     C     2.0621014067   -5.0780522886    0.9300343105
     H     0.9180825866    1.7081186380    1.7472260955
     H     0.7435033573    0.0681322198    1.0923676849
     H     2.1073952991    1.0943137916    0.5813121891
     H     1.6795823266    0.0211010702    3.4292027222
     H     3.0383071411    1.0298312139    2.8909226791
     H     6.8423900724   -2.6599618568    0.4377267879
     H     6.7102160606    0.4224003153    0.4864692653
     H     8.7688326574   -1.7096736838   -0.4122989543
     H     8.8433920789    1.3809169060   -0.5188801324
     H    10.7778593127   -0.8775263461   -1.3175651150
     H    10.8502462681    2.1943409990   -1.6126924766
     H    12.7178102115   -0.9690737861   -0.7331476357
     H    14.3449075083   -1.3799697132   -1.2293972230
     H    11.8297245182   -1.9915912383   -2.9055524488
     H    12.7433774532   -3.1614346562   -1.9325680658
     H    13.4919740141   -2.4078257964   -3.3530178376
     H    15.7527465802   -1.3723209657   -2.8996444020
     H    17.6743853896   -0.4478262155   -4.1327176702
     H    17.6689388111    1.8965728016   -4.9327686945
     H    15.7086417015    3.3656069560   -4.4964183682
     H     2.1615640690   -4.6177623699    3.0457418093
     H     3.6797718816   -5.2250388664    2.3517302648
     H     1.1939331106   -4.4434256636    0.7287219475
     H     1.7107129231   -6.1039085622    1.0834343869
     H     2.7213131102   -5.0677507472    0.0566957470
