30
-1.1635488836371128e+03 frame 41   xyz file generated by TeraChem
     C     1.7319707690    0.7029111807    0.2526789480
     C     2.9391220655   -0.2005724380    0.2260835661
     O     3.4091381167   -0.6465284276    1.2642264711
     C     3.5508416531   -0.5387607201   -1.0869134014
     C     3.0313303656   -0.0848050790   -2.3054213831
     C     3.6335003594   -0.4240830613   -3.5085731535
     C     4.7814492972   -1.2369486030   -3.5347765834
     C     5.2986151516   -1.6913541183   -2.3057489938
     C     4.6958128721   -1.3466946457   -1.1096537353
     C     5.4238437335   -1.5882287611   -4.7936825521
     S     7.0763300727   -2.1486609605   -4.8420192782
     C     7.0577146976   -2.3320150956   -6.5528037982
     C     5.8474821136   -1.9794755448   -7.0741372120
     C     4.9127193435   -1.5585464363   -6.0750274397
     O     3.6483747683   -1.1853508356   -6.3890117891
     C     3.2620736731   -1.5901412668   -7.7065425105
     C     4.3579143909   -1.2799281662   -8.6983384684
     O     5.5364222512   -2.0280762115   -8.3942398014
     H     1.4216348405    0.8540647961    1.2880339351
     H     0.9030928208    0.2644415504   -0.3148551399
     H     1.9611970384    1.6721113002   -0.2049766770
     H     2.1491795374    0.5484959764   -2.3246057269
     H     3.2208400868   -0.0512142145   -4.4386483552
     H     6.1750024965   -2.3347514944   -2.2914315560
     H     5.0994556059   -1.7039686525   -0.1670339121
     H     7.9347634843   -2.6735735335   -7.0856388299
     H     2.3540919420   -1.0317519677   -7.9414143063
     H     3.0397242688   -2.6643879758   -7.7044698951
     H     4.5897131202   -0.2071547781   -8.6847958898
     H     4.0600018542   -1.5719716914   -9.7072671662
