41
-2.1902071865066537e+03 frame 56   xyz file generated by TeraChem
     C     2.3961445477    0.9901865563    0.2289390351
     C     2.3936099049   -0.3567606262    0.9113929280
     O     1.4097885484   -1.2154097008    0.3242920887
     C     0.2234902860   -0.5930547697    0.1399986454
     C     0.0867530625    0.8221395208    0.1849375032
     O     1.1356214485    1.6464675999    0.4072438860
     C    -1.2071759727    1.2587881473   -0.0159352546
     S    -2.2585668644   -0.1067244921   -0.2743029087
     C    -0.9611532434   -1.2568902773   -0.1057493341
     C    -1.1718749412   -2.6785035758   -0.1980146293
     C    -0.2245608755   -3.6644460353   -0.2867880680
     C    -0.7798289758   -4.9806410755   -0.3535267594
     C    -2.1935403411   -4.9699527636   -0.3187354701
     S    -2.8035134948   -3.3409017202   -0.1891278571
     C    -2.9420848500   -6.1454430726   -0.3752313407
     C    -2.2606194478   -7.3524811625   -0.4675200039
     C    -0.8569944891   -7.3863315968   -0.5052485513
     C    -0.1166730479   -6.2168684185   -0.4501154503
     C    -1.6882599709    2.6160169587   -0.0439403341
     C    -1.0159895679    3.7558866188    0.3113473281
     C    -1.7946933916    4.9455543759    0.1567696330
     C    -3.0951239100    4.6771014089   -0.3296570567
     S    -3.3231567038    2.9684813153   -0.5959961340
     C    -4.0251933373    5.6926123098   -0.5498297643
     C    -3.6446809418    7.0002932964   -0.2759281251
     C    -2.3590020445    7.2897577915    0.2098541289
     C    -1.4374734207    6.2785428286    0.4267906623
     H     2.5956867018    0.8777900905   -0.8436138469
     H     3.1466403576    1.6473277427    0.6715969233
     H     2.1817965324   -0.2442672971    1.9816286212
     H     3.3536335073   -0.8590288990    0.7813263467
     H     0.8382539997   -3.4576508944   -0.3129278155
     H    -4.0276681103   -6.1189673265   -0.3468058253
     H    -2.8232491719   -8.2808590742   -0.5116369376
     H    -0.3473148297   -8.3431789680   -0.5785379829
     H     0.9695174367   -6.2446625911   -0.4800066180
     H     0.0022357009    3.7480303980    0.6805770573
     H    -5.0196260801    5.4681146023   -0.9249091928
     H    -4.3530550431    7.8075927735   -0.4398503664
     H    -2.0856973854    8.3207542058    0.4174167701
     H    -0.4431333010    6.5042651217    0.8033658421
