37
-1.3179875484754125e+03 frame 36   xyz file generated by TeraChem
     C     1.9250946447    0.0209706605   -0.7183047267
     C     1.6189493520   -1.3128445872   -0.0752855592
     O     0.3474718386   -1.8034671648   -0.5057148780
     C    -0.6137684758   -0.8443679049   -0.4654715996
     C    -0.3013131874    0.5517548811   -0.3741546723
     O     0.9752757869    1.0098634335   -0.3122895503
     C    -1.4062407663    1.3608296434   -0.3436717147
     S    -2.8481486132    0.3892500676   -0.4522033305
     C    -1.9551756339   -1.0847961534   -0.5181671776
     C    -1.4501540199    2.8332514205   -0.2861933247
     C    -1.1074616377    3.5841181941   -1.4329917656
     C    -0.7229741423    2.9709426503   -2.6636037333
     C    -0.3915528042    3.7248801286   -3.7562943174
     C    -0.4221039729    5.1454342130   -3.6966570552
     C    -0.7936889273    5.7729851945   -2.5408428859
     C    -1.1493568153    5.0222744368   -1.3801614046
     C    -1.5430990300    5.6558779634   -0.2004808079
     C    -1.8858389971    4.9275213092    0.9394942756
     C    -1.8309114171    3.4888057019    0.9055051918
     C    -2.1515393503    2.7795716941    2.1029261544
     C    -2.5203073419    3.4432408779    3.2413133908
     C    -2.5939384883    4.8632868814    3.2643969697
     C    -2.2809124014    5.5818194555    2.1449678301
     H     1.9109748490   -0.0720715709   -1.8118892194
     H     2.9031836276    0.3868836356   -0.3998179616
     H     1.6240138323   -1.2163319630    1.0182518681
     H     2.3543765065   -2.0625732202   -0.3740197195
     H    -2.4569849378   -2.0406735588   -0.5848875432
     H    -0.7014450438    1.8868420877   -2.7199237044
     H    -0.1033409803    3.2359281909   -4.6831534519
     H    -0.1528700249    5.7261073873   -4.5747811081
     H    -0.8272892023    6.8585284183   -2.4820824342
     H    -1.5812509957    6.7431839090   -0.1683697066
     H    -2.0884231613    1.6957660018    2.1011003366
     H    -2.7564324323    2.8818555542    4.1414562673
     H    -2.8927106564    5.3710308268    4.1774476408
     H    -2.3228938541    6.6686184656    2.1503081254
