134
-2.9438867552378842e+03 frame 69   xyz file generated by TeraChem
     C    -6.1878354186   -1.9574577893   -2.8938554753
     C    -4.8767497769   -2.7146039906   -2.9333785485
     O    -3.8260043165   -1.7544928268   -2.9407132619
     C    -2.5495436323   -2.2038629772   -2.9744588454
     C    -2.1828827568   -3.5470938117   -3.0137993803
     C    -0.8245043379   -3.9024000305   -3.0382146438
     C    -0.3694322889   -5.2882587801   -3.0591936915
     C    -1.1405518156   -6.3963237131   -3.0366791910
     C    -0.6591671685   -7.7656800021   -3.0419378766
     C     0.6696870763   -8.1556848238   -3.1175031052
     C     1.0881874535   -9.5019490108   -3.1055427430
     C     0.2144957909  -10.5757623157   -3.0216353422
     C    -1.1729738852  -10.2220042375   -2.9430215089
     C    -1.6017940793   -8.8428245405   -2.9549405987
     N    -2.9283071700   -8.7046164960   -2.8749351612
     S    -3.5520476365  -10.2046881473   -2.7928060185
     N    -2.1871277947  -11.0870325565   -2.8545510115
     C     0.5964470925  -11.9761532918   -3.0028285978
     C     1.8535381287  -12.4519042810   -3.1319397624
     C     2.2699455144  -13.8485545651   -3.1041468211
     C     1.3688782875  -14.9150456487   -2.9309389175
     C     1.8184866490  -16.2298749950   -2.9055328381
     O     1.0411449465  -17.3334285164   -2.7877051870
     C    -0.3831620507  -17.2594527764   -2.7382062577
     C    -0.9214009487  -17.5006631374   -1.3309756805
     C    -0.4498435108  -16.4391287787   -0.3415358541
     C    -2.4501669178  -17.6003857641   -1.4011602010
     C    -3.1056510344  -18.0665963071   -0.1058645525
     C     3.2036066174  -16.5071461319   -3.0150051190
     C     4.0941030881  -15.4459398597   -3.2091716237
     C     3.6306170005  -14.1346920006   -3.2582069574
     O     5.4398385892  -15.6703711064   -3.3180684077
     C     5.8624962319  -16.1458560271   -4.6018646600
     C     7.3625036563  -15.9401127661   -4.7447789453
     C     8.1350515365  -16.7180509988   -3.6830263887
     C     7.7813815321  -16.3136288164   -6.1717255184
     C     9.2335488465  -15.9870111579   -6.5019983889
     O     3.6861826306  -17.7771945099   -2.9979605310
     C     3.3995521905  -18.5827593937   -1.8427225507
     C     4.6504476162  -19.3435617562   -1.4278719921
     C     5.7296563243  -18.3906327975   -0.9230610671
     C     4.2644221793  -20.4026214014   -0.3897587592
     C     5.4130214573  -21.3093105533    0.0373892337
     C     0.1554863804   -2.8987347267   -3.0355793633
     C    -0.2096370965   -1.5519974190   -2.9995603796
     C    -1.5658533300   -1.1979503742   -2.9697506173
     O    -1.9431235630    0.1136433533   -2.9672487504
     C    -1.9547380082    0.7103384369   -1.6650808012
     C    -2.5283070055    2.1131009574   -1.7765238474
     C    -3.9837549507    2.0707697285   -2.2370144246
     C    -2.3513406619    2.8423542779   -0.4405178205
     C    -2.7622081366    4.3100681757   -0.4725729628
     O     0.6634816644   -0.5186259112   -2.9906343981
     C     2.0560633608   -0.8102451499   -3.0248678559
     C     2.8229576454    0.5045111790   -3.0176068286
     C     2.5163440133    1.3241394550   -4.2698728238
     C     2.5781000437    1.2824192693   -1.7192789618
     C     3.5066789464    2.4756165453   -1.5247492504
     C    -7.3950094664   -2.8898719027   -2.8836748399
     C    -8.7162756832   -2.1308703001   -2.8543108324
     H    -6.2366886350   -1.2904423665   -3.7646568408
     H    -6.2009030786   -1.3167580693   -2.0022352085
     H    -4.8143299066   -3.3402321644   -3.8346797704
     H    -4.7750394285   -3.3692128762   -2.0565071183
     H    -2.9455992462   -4.3164199706   -3.0181388058
     H     0.7138044348   -5.4019879032   -3.0853379982
     H    -2.2231953811   -6.2974810205   -3.0007535511
     H     1.4435896822   -7.3966321521   -3.1882537100
     H     2.1566656955   -9.6899418202   -3.1605768312
     H    -0.2307035986  -12.6704035686   -2.8734801008
     H     2.6719866047  -11.7473355638   -3.2741106304
     H     0.3130350765  -14.7022831540   -2.8168218724
     H    -0.7303688649  -18.0571025474   -3.4040305727
     H    -0.7479674526  -16.3110532967   -3.1455916213
     H    -0.5303261263  -18.4768456204   -1.0066311704
     H    -0.8537447379  -15.4527039923   -0.6031781729
     H     0.6425086550  -16.3652322811   -0.3279560763
     H    -0.7764619183  -16.6753170571    0.6762543055
     H    -2.7233368289  -18.2965075764   -2.2065873664
     H    -2.8575838265  -16.6207080683   -1.6904639752
     H    -2.7043256220  -19.0378934710    0.2076763949
     H    -4.1876556788  -18.1784242275   -0.2357518642
     H    -2.9449753910  -17.3583376087    0.7139670928
     H     4.3528012663  -13.3347271516   -3.3968148958
     H     5.3289631320  -15.5848157205   -5.3811007417
     H     5.6039523825  -17.2088961188   -4.7023395693
     H     7.5537126223  -14.8658280150   -4.6012771955
     H     7.9709621767  -17.7974639921   -3.7999398597
     H     7.8136077557  -16.4358051838   -2.6758000318
     H     9.2115183800  -16.5312736032   -3.7528559663
     H     7.1286585955  -15.7844066242   -6.8796754497
     H     7.5989902173  -17.3866877188   -6.3291596672
     H     9.4449505654  -14.9248027364   -6.3286191606
     H     9.4520367329  -16.2038960046   -7.5533511762
     H     9.9331396409  -16.5699137840   -5.8936745483
     H     2.5902907411  -19.2762939309   -2.0955029034
     H     3.0550736172  -17.9396143266   -1.0230493302
     H     5.0239539512  -19.8630864744   -2.3237821108
     H     5.4360972610  -17.9557386904    0.0421084639
     H     5.8826701501  -17.5703320148   -1.6313250548
     H     6.6875492676  -18.9018279839   -0.7818121709
     H     3.4532495907  -21.0213452891   -0.7982096229
     H     3.8487306342  -19.8966977213    0.4942952088
     H     5.8609168885  -21.8121299590   -0.8285345334
     H     5.0612998022  -22.0835244270    0.7281760153
     H     6.2063655859  -20.7500875634    0.5449652710
     H     1.2015638823   -3.1842987810   -3.0564841151
     H    -0.9294797567    0.7396000452   -1.2730899242
     H    -2.5668784736    0.0970891023   -0.9879867491
     H    -1.9320051652    2.6412581322   -2.5363584563
     H    -4.6204751650    1.6341253684   -1.4558668466
     H    -4.0880431347    1.4563332959   -3.1365433825
     H    -4.3657686375    3.0713997962   -2.4624955479
     H    -1.2972682836    2.7741895587   -0.1375831658
     H    -2.9289516334    2.3152729798    0.3330786273
     H    -2.2092424558    4.8550993627   -1.2473783512
     H    -2.5554949461    4.7943986139    0.4882164289
     H    -3.8311100352    4.4310102452   -0.6786266661
     H     2.2883157791   -1.3854282060   -3.9319375990
     H     2.3263149300   -1.4181137670   -2.1500928557
     H     3.8852297909    0.2165521015   -3.0423920875
     H     1.4645798163    1.6312100316   -4.2852304333
     H     2.7098358616    0.7389171239   -5.1765200319
     H     3.1327377964    2.2273266804   -4.3204520512
     H     2.6990304589    0.5925866061   -0.8721634421
     H     1.5328112311    1.6180967839   -1.6946696425
     H     4.5583306203    2.1638177180   -1.5462778815
     H     3.3227996611    2.9608377772   -0.5597880441
     H     3.3686655213    3.2325020000   -2.3045095421
     H    -7.3340998504   -3.5568891734   -2.0127706154
     H    -7.3624167867   -3.5385685068   -3.7697875896
     H    -8.7857432945   -1.4961546719   -1.9628769248
     H    -9.5700084919   -2.8170765218   -2.8447151408
     H    -8.8169975707   -1.4822887754   -3.7326838795
