67
-1.6211161788633317e+03 frame 90   xyz file generated by TeraChem
     C     0.9296665603   -1.0428565313    0.9301406157
     C     2.3357170903   -1.5929542603    0.8773561964
     O     3.0113366473   -0.9437738928   -0.1961372069
     C     4.3111598404   -1.2562046814   -0.4171025847
     C     5.0368740961   -2.2014807948    0.3148465330
     C     6.3699474818   -2.4499202451   -0.0043649415
     C     7.0053857905   -1.7510592320   -1.0310924254
     C     6.2725755632   -0.8041926830   -1.7580007496
     C     4.9406597667   -0.5655121510   -1.4611437419
     N     8.3649028474   -2.0068374648   -1.3573109018
     C     8.6824713804   -2.2599022151   -2.7190974329
     C     9.7016207046   -1.5568054317   -3.3621897710
     C    10.0121809088   -1.8041549191   -4.6975564050
     C     9.2786344972   -2.7521109844   -5.4179576077
     C     8.2415783295   -3.4465875813   -4.7809388284
     C     7.9535542743   -3.2092263045   -3.4469418120
     O     9.4914547670   -3.0638416223   -6.7193792087
     C    10.5600892276   -2.4132597547   -7.4012526599
     C    10.6070104538   -2.9648942263   -8.8068984268
     C     9.3534109545   -1.9922659189   -0.3792687246
     C    10.5529210835   -2.7166002879   -0.5517324002
     C    11.5364745516   -2.7010482260    0.4173270180
     C    11.3839928703   -1.9686842469    1.6112942249
     C    10.1818511700   -1.2571315595    1.7762461302
     C     9.1890522698   -1.2610140012    0.8125303576
     C    12.3830208681   -1.9155492506    2.6574968186
     C    13.6043692685   -2.4977774601    2.6616978072
     C    14.5345534327   -2.3889017851    3.7687996881
     C    15.7908261660   -3.0167392184    3.7162643666
     C    16.6218819673   -2.8711469715    4.8118519280
     N    16.2790252275   -2.1665358863    5.8977148182
     C    15.0698286482   -1.6147829703    5.8377355599
     N    14.1836103693   -1.6770758375    4.8590849601
     N    14.6856380393   -0.8667623063    6.9672094722
     C    15.4299235811   -0.6652514378    8.1138947183
     C    14.6494381277    0.1134182996    8.9164002239
     N    13.4461524715    0.4002138610    8.3019874168
     C    13.5014898844   -0.2006304612    7.1398607290
     H     0.3742040877   -1.5244566578    1.7408655050
     H     0.4035453944   -1.2332668089   -0.0106334926
     H     0.9421485791    0.0364268264    1.1118209864
     H     2.3274325887   -2.6776203865    0.7056410657
     H     2.8696767849   -1.4021811578    1.8178702930
     H     4.5746923631   -2.7590301898    1.1219659242
     H     6.9246346551   -3.1962323033    0.5576662135
     H     6.7565266964   -0.2564618012   -2.5618073880
     H     4.3691658156    0.1686330371   -2.0219830314
     H    10.2644808377   -0.8079037488   -2.8118723734
     H    10.8136643642   -1.2433408616   -5.1655536988
     H     7.6793734513   -4.1827953415   -5.3484243426
     H     7.1555736643   -3.7602134608   -2.9570869132
     H    11.5036823105   -2.6013820057   -6.8717816602
     H    10.3861042824   -1.3289556869   -7.4100310012
     H    10.7906298152   -4.0438474894   -8.7940368339
     H    11.4142200773   -2.4825546892   -9.3668261754
     H     9.6634142276   -2.7767477460   -9.3287704647
     H    10.6990315105   -3.3027519808   -1.4532312024
     H    12.4375141796   -3.2847085975    0.2488174859
     H    10.0337693454   -0.6752187912    2.6834755769
     H     8.2812221596   -0.6887507987    0.9730287792
     H    12.1093217929   -1.3349813203    3.5383026344
     H    13.9521122797   -3.0861510669    1.8159200028
     H    16.0945246037   -3.5936249819    2.8494380264
     H    17.6062121007   -3.3344696426    4.8317637739
     H    16.4134277791   -1.0918163318    8.2279989361
     H    14.8821083837    0.4870822821    9.9051935258
     H    12.7366431119   -0.2012794533    6.3768562106
