79
-1.9769862781549791e+03 frame 60   xyz file generated by TeraChem
     C     0.8843948136   -1.1716795347   -0.6801059389
     C     0.5498455918    0.1781449429   -0.5795025399
     C    -0.7784548769    0.5804895962   -0.6974923009
     C    -1.7924847826   -0.3602552815   -0.9176636476
     C    -1.4460211920   -1.7138775846   -1.0128420910
     C    -0.1174140483   -2.1161146630   -0.8958167277
     C    -3.2121168862    0.0781019945   -1.0477472397
     C    -3.5720312127    0.8514513579   -2.1687389856
     C    -2.6302120561    1.1971913841   -3.2207752103
     C    -3.3220411713    1.9331598132   -4.1207229483
     C    -4.6831701311    2.0157407277   -3.6174780700
     N    -4.8105946874    1.3532116277   -2.4337724390
     C    -5.6995619505    2.7252116619   -4.2859621759
     C    -7.0188791336    2.8657573161   -3.8355184191
     C    -8.0707434005    3.5851570053   -4.4850502004
     C    -9.1945555206    3.4805856408   -3.7143100230
     C    -8.8776679736    2.6728435582   -2.5773819753
     C    -9.7455080954    2.3060347131   -1.5398826984
     C    -9.3948714104    1.5021230228   -0.4377959541
     N    -8.1660804915    0.9671039310   -0.1936159890
     C    -8.3067986228    0.2594773303    0.9622110525
     C    -7.2922434325   -0.4555950314    1.6269861483
     C    -5.9611759590   -0.5561864878    1.2015201886
     N    -5.4191001415   -0.0078606234    0.0691614908
     C    -4.0875630636   -0.3141520843   -0.0260747267
     C    -3.7655631408   -1.1022306402    1.1231000961
     C    -4.9054049692   -1.2607323625    1.8606692231
     C    -7.6435519677   -1.1699885825    2.8892874110
     C    -8.4686170173   -2.3007509230    2.8585362690
     C    -8.7983598874   -2.9694711962    4.0348755688
     C    -8.3079848126   -2.5172257449    5.2586095205
     C    -7.4854712384   -1.3930649547    5.2997488146
     C    -7.1547997210   -0.7244774620    4.1232340723
     C    -9.6657184332    0.3493479069    1.4702508685
     C   -10.3480743721    1.1178774647    0.5903983483
     C   -11.1432085384    2.8191588710   -1.6267507743
     C   -12.0083338433    2.3781886815   -2.6356396718
     C   -13.3108423703    2.8654205082   -2.7157343365
     C   -13.7672731443    3.8006765794   -1.7887316939
     C   -12.9144050057    4.2453906460   -0.7800922467
     C   -11.6121655325    3.7587978203   -0.6998958260
     N    -7.5561035382    2.3324417382   -2.6938759141
     C    -5.3623235889    3.3923757291   -5.5773870149
     C    -5.3227111766    4.7888858543   -5.6717057594
     C    -5.0040984858    5.4092118636   -6.8775276398
     C    -4.7220604011    4.6423551536   -8.0063927910
     C    -4.7609071929    3.2515746785   -7.9235933885
     C    -5.0788677480    2.6311271859   -6.7179625579
    Zn    -0.0340115172   -0.3938786350    3.3404016973
     H     1.9212096171   -1.4848406339   -0.5908734439
     H     1.3241995462    0.9214202350   -0.4085204101
     H    -1.0371677630    1.6329623886   -0.6146394773
     H    -2.2236627515   -2.4521229893   -1.1914131812
     H     0.1345890057   -3.1700007757   -0.9802428230
     H    -1.5879287868    0.9114027306   -3.2574842580
     H    -2.9570508964    2.3778797836   -5.0363633975
     H    -7.9646779564    4.1153340580   -5.4207260833
     H   -10.1646191228    3.9152512868   -3.9086174512
     H    -5.9304340438    0.5490692260   -0.6079325216
     H    -2.7833725797   -1.4960551997    1.3426607393
     H    -5.0172452352   -1.8094658195    2.7849829950
     H    -8.8473466159   -2.6579427511    1.9042427276
     H    -9.4376868330   -3.8474581780    3.9935808209
     H    -8.5658577273   -3.0388150385    6.1765342153
     H    -7.1020367854   -1.0314123196    6.2502955757
     H    -6.5187181868    0.1563935269    4.1582113862
     H   -10.0363640847   -0.1147141378    2.3740316434
     H   -11.3911987224    1.4009621224    0.6249938231
     H   -11.6574540789    1.6419982758   -3.3544401078
     H   -13.9712313623    2.5096743487   -3.5022795194
     H   -14.7834758887    4.1807919692   -1.8516886649
     H   -13.2609462483    4.9773512184   -0.0551646987
     H   -10.9457458821    4.1122196075    0.0827039076
     H    -7.0473575892    1.7662290228   -2.0225794719
     H    -5.5355696146    5.3893491380   -4.7907528737
     H    -4.9723670829    6.4942683960   -6.9323627868
     H    -4.4732270414    5.1263144463   -8.9471247230
     H    -4.5462923008    2.6459954737   -8.8002842192
     H    -5.1134046645    1.5463395656   -6.6564513935
