42
-1.0325334745074983e+03 frame 16   xyz file generated by TeraChem
     C     1.4738708902    0.3682967783    0.0234032582
     C     0.7150193822   -0.3854199291    0.9172543840
     C    -0.6754444289   -0.3429632486    0.8658072233
     C    -1.3284994427    0.4587702136   -0.0805215882
     C    -0.5556738230    1.2198848253   -0.9676985549
     C     0.8343816602    1.1713310838   -0.9190303095
     C    -2.8061790497    0.5636559712   -0.1204385924
     C    -3.3983346705    1.8149606611   -0.0982777163
     C    -4.7957244007    1.9206100061   -0.1057379785
     N    -5.6158775222    0.8866893996   -0.1304522306
     C    -5.0687070589   -0.3465048928   -0.1716822438
     C    -3.6657034721   -0.5709272918   -0.1830715309
     C    -3.1778093043   -1.9098514232   -0.3092495302
     C    -4.0239633231   -2.9731894437   -0.3466524533
     C    -5.4418773710   -2.8014069461   -0.2652752346
     C    -5.9755067088   -1.4859563218   -0.2159245853
     N    -7.3008673802   -1.2311353485   -0.2164578589
     C    -8.1243543809   -2.2610276575   -0.2737959236
     C    -7.7079579118   -3.5988873928   -0.3082935064
     C    -6.3557710392   -3.8941315752   -0.2859009844
     C    -5.9177763359   -5.3098403178   -0.2773031494
     C    -6.4233178997   -6.2037271110   -1.2301674033
     C    -6.0545214974   -7.5457526949   -1.2083593083
     C    -5.1836435649   -8.0166418558   -0.2273563552
     C    -4.6835330628   -7.1377694453    0.7319088388
     C    -5.0444423860   -5.7937250590    0.7065031234
     H     2.5592349249    0.3314720632    0.0631218481
     H     1.2063545245   -1.0049871112    1.6627471898
     H    -1.2600803807   -0.9177277718    1.5793036892
     H    -1.0523245058    1.8402154484   -1.7094404587
     H     1.4184314080    1.7610520861   -1.6205980323
     H    -2.7883972143    2.7119567913   -0.0470922571
     H    -5.2599017309    2.9058606221   -0.0768703371
     H    -2.1088647931   -2.0732027658   -0.3975025311
     H    -3.6222967395   -3.9742716882   -0.4640669516
     H    -9.1890523843   -2.0298878238   -0.2793311501
     H    -8.4453748445   -4.3959671439   -0.3219393011
     H    -7.0985604484   -5.8370592539   -1.9992275006
     H    -6.4476874688   -8.2245597679   -1.9604965260
     H    -4.8980933482   -9.0650104919   -0.2086146287
     H    -4.0132159019   -7.4996536181    1.5070105528
     H    -4.6653965638   -5.1169105204    1.4677565736
