33
-8.1686376039924835e+02 frame 83   xyz file generated by TeraChem
     C     1.0712574545   -0.9489368699   -1.0535420545
     C     1.0191080982    0.4166558122   -1.2789013771
     C    -0.1933690368    1.1350541418   -1.1859509193
     C    -1.3568810086    0.4739546053   -0.8378299668
     C    -1.3011795496   -0.9407445464   -0.5345339703
     C    -0.0984195624   -1.6744123685   -0.7127534807
     C    -2.6375554071   -1.4377244230   -0.4322382431
     C    -3.4928057852   -0.2652306332   -0.5476714638
     C    -2.7446287014    0.8594534848   -0.7785032670
    Fe    -1.6480427024   -2.2310504862   -2.0916588887
     C    -1.0388823705   -3.2551014327   -3.7650454967
     C    -0.8430013236   -1.8590887285   -3.9130742181
     C    -2.0948912376   -1.1925111745   -3.7476362160
     C    -3.1173869484   -2.1995164980   -3.6242600235
     C    -2.4546243666   -3.4800037559   -3.5999006055
     C    -3.2100738733   -4.6559658147   -3.3435515622
     C    -4.5705603583   -4.5493998314   -3.1806813887
     C    -5.2275069609   -3.2896916241   -3.2402352319
     C    -4.5235106327   -2.1280227854   -3.4419277752
     H     2.0220568178   -1.4722430287   -1.1154824023
     H     1.9289068756    0.9485835549   -1.5454939570
     H    -0.2048155628    2.2000480333   -1.4096071938
     H    -0.0062494405   -2.7027624759   -0.3481040951
     H    -2.9258317804   -2.3398836365    0.1104895610
     H    -4.5741915405   -0.2914237496   -0.4529788039
     H    -3.1231792909    1.8620585581   -0.9465844981
     H    -0.2701040049   -4.0179266317   -3.7803652130
     H     0.1167433024   -1.3657331432   -4.0095011661
     H    -2.2534278065   -0.1217133988   -3.7598561565
     H    -2.7169805125   -5.6244462479   -3.3154836344
     H    -5.1630289736   -5.4443999819   -3.0091712810
     H    -6.3064296422   -3.2522677493   -3.1151352391
     H    -5.0256000502   -1.1652994327   -3.4815170979
