55
-1.3233806733650840e+03 frame 33   xyz file generated by TeraChem
     C    -2.8658923147   -0.6306409908   -0.4920366636
     C    -3.1330024669    0.6159290109   -1.0657973950
     C    -2.0998848158    1.5209306047   -1.3180220212
     C    -0.7989774918    1.1635052922   -0.9896217624
     C    -0.5304165386   -0.0919007101   -0.4116945402
     C    -1.5632059298   -0.9954122085   -0.1598017120
     C     0.9092554609   -0.1946046328   -0.1773970178
     C     1.6777291328   -1.2243781696    0.3673897702
     C     3.0515944196   -1.0559104174    0.4743346207
     C     3.6708735919    0.1346504332    0.0421211855
     C     2.8883115626    1.1701365423   -0.5069451271
     C     1.5199720291    0.9982387819   -0.6123565755
     C     0.4800615478    1.9427721286   -1.1578728738
     C     5.0797780573    0.2884291830    0.1611759340
     C     6.2855961399    0.4190691314    0.2642551800
     C     7.6939417244    0.5732236092    0.3868441887
     C     8.3260804787    1.7539268879   -0.0414640492
     C     9.7004734681    1.9012691693    0.0722785158
     C    10.4730117038    0.8798263561    0.6340339296
     C     9.8538786757   -0.2959858120    1.0702465030
     C     8.4819368700   -0.4515458476    0.9399542914
     N    11.8701220108    1.0352778285    0.7614287634
     C    12.5163696949    2.1072109256    1.3720058160
     C    11.9736426745    3.2234817872    2.0102828112
     C    12.8577155094    4.1423316996    2.5644091891
     C    14.2475242840    3.9588639493    2.4940639161
     C    14.7813582082    2.8385148424    1.8702881750
     C    13.9137507530    1.8993870645    1.3060055449
     C    14.1167885560    0.6445221551    0.6212744450
     C    12.8340373626    0.1403205942    0.3038375886
     C    12.6724865252   -1.0556781816   -0.3972517293
     C    13.8209346644   -1.7511160904   -0.7584694259
     C    15.1008020037   -1.2720673781   -0.4382987266
     C    15.2557010756   -0.0738727875    0.2470343448
     H    -3.6833986095   -1.3216150208   -0.3036514644
     H    -4.1558861840    0.8830039186   -1.3182028269
     H    -2.3147614099    2.4886994584   -1.7651504496
     H    -1.3591467476   -1.9656809341    0.2864195688
     H     1.2154141399   -2.1481198983    0.7058519357
     H     3.6668757577   -1.8457382638    0.8950188565
     H     3.3684866463    2.0863757637   -0.8398412767
     H     0.6705402794    2.1990127270   -2.2086695771
     H     0.4599713477    2.8927110965   -0.6070743495
     H     7.7310630581    2.5503086996   -0.4779912631
     H    10.1819523540    2.8059474023   -0.2868796772
     H    10.4494058572   -1.0822151200    1.5244436635
     H     8.0063475390   -1.3657508410    1.2818410233
     H    10.9004299782    3.3715438742    2.0779301502
     H    12.4591051307    5.0205804809    3.0652666117
     H    14.9092491333    4.6984332326    2.9361664327
     H    15.8572146963    2.6887980067    1.8249340763
     H    11.6879973147   -1.4323446585   -0.6565833945
     H    13.7208022344   -2.6861529268   -1.3032481763
     H    15.9765985213   -1.8426660964   -0.7344280233
     H    16.2465023498    0.3044655437    0.4860632375
