53
-1.9734811719126437e+03 frame 84   xyz file generated by TeraChem
     C     0.4746456555   -3.3516066799   -3.3120209663
     C     1.2495660291   -2.9232395353   -2.0746946345
     N     2.1199740150   -3.9941451400   -1.5798108667
     C     1.6755078925   -5.1374036543   -0.9845329067
     C     0.4442773782   -5.4534375832   -0.4387177347
     C    -0.6208876375   -4.6526429991    0.0622863262
     C    -1.9295682823   -5.1615414960   -0.0280924004
     C    -3.0117668200   -4.4118670099    0.3619808948
     N    -2.8884957565   -3.1811895910    0.8891199284
     C    -1.6346070739   -2.6589645544    1.1412195433
     C    -0.4773828592   -3.3993346023    0.7669491826
     C     0.7821726055   -2.9082868890    1.1799669440
     C     0.9020891228   -1.7128414910    1.8509441045
     C    -0.2453299620   -0.9541780966    2.1356607197
     C    -1.4978367999   -1.4194036098    1.7966021873
     C    -4.0897199960   -2.4264292907    1.2403834157
     S     2.9084400092   -6.3802203342   -1.0152560976
     C     4.0340429806   -5.3252415399   -1.8622733048
     C     5.2946422559   -5.6092072313   -2.3622697644
     S     6.1863815933   -4.4048421037   -3.2829872409
     C     7.4960872147   -5.5401473757   -3.5304290126
     C     7.2273091417   -6.7673777972   -2.9173117017
     N     6.0032157455   -6.7646670168   -2.2470458134
     C     5.5459944411   -7.9036277901   -1.4644743235
     C     8.1384252240   -7.8192224749   -3.0206811214
     C     9.3143927927   -7.6030869245   -3.7324489481
     C     9.5855891766   -6.3711515729   -4.3343497445
     C     8.6731696919   -5.3248671336   -4.2386784295
     C     3.4344744096   -4.0424897857   -2.0881208061
     O     3.9406754663   -3.0891851643   -2.6803889107
     I     2.3698657843    1.7682978610    4.4044646681
     H    -0.1584680839   -2.5238325021   -3.6465431019
     H    -0.1680499831   -4.2117624663   -3.1008340260
     H     1.1571476019   -3.6150892524   -4.1261249075
     H     0.5811717581   -2.5972813379   -1.2798411756
     H     1.9200521023   -2.0930614832   -2.3039211229
     H     0.2449974230   -6.5230598375   -0.4056131869
     H    -2.1083763748   -6.1318679097   -0.4781929175
     H    -4.0254609761   -4.7723010909    0.2304652726
     H     1.6665990171   -3.5031517395    0.9784087992
     H     1.8777873874   -1.3592115352    2.1701892506
     H    -0.1471904919   -0.0040613369    2.6535719060
     H    -2.3734963894   -0.8365309353    2.0552992792
     H    -4.9618929544   -3.0089513081    0.9474306101
     H    -4.1003873395   -1.4714314228    0.7096380451
     H    -4.1198089961   -2.2494823903    2.3183756251
     H     6.3836887599   -8.5792542575   -1.3015973179
     H     4.7507692249   -8.4437082380   -1.9850056098
     H     5.2040665669   -7.5660254306   -0.4839635513
     H     7.9462084845   -8.7882294004   -2.5730115523
     H    10.0303895918   -8.4149004996   -3.8207179131
     H    10.5106992589   -6.2279116662   -4.8846021202
     H     8.8692654420   -4.3645370552   -4.7066216822
