40
-1.7512550628960339e+03 frame 24   xyz file generated by TeraChem
     C     0.4986325310    0.8116404292    0.5522839283
     C     0.1350127466    1.1891787722   -0.7132597913
     S    -0.1548940311   -0.1755701683   -1.7156287959
     C     0.2133685122   -1.2911702299   -0.4288097082
     C     0.5441275318   -0.5948757060    0.7170648538
     C     0.1394865754   -2.7118031572   -0.6808152167
     C     0.3888129893   -3.6757754282    0.2352589435
     C     0.3140673104   -5.0937801568   -0.0243348381
     C    -0.0124426164   -5.7845800299   -1.1763018820
     C     0.0317705770   -7.1852888951   -1.0229969629
     C     0.3905717692   -7.5953228576    0.2452818685
     S     0.6816706471   -6.2130675294    1.2559162294
     C     0.5267587747   -8.9540276777    0.7507419470
     C     0.7299271569  -10.0347113741   -0.1487876180
     N     0.8512900272  -11.2940413237    0.2085671208
     C     0.7931108913  -11.6029766602    1.5231485884
     C     0.6104985483  -10.6085925128    2.5171121812
     C     0.4743706280   -9.2739627787    2.0989262042
     C     0.5544838639  -10.9717951174    3.9012581101
     C     0.6750794286  -12.2702461715    4.2816595729
     C     0.8622012956  -13.3052241005    3.3106528309
     C     0.9248439135  -12.9894213854    1.9274956737
     N     1.1012396221  -13.9322496224    0.9764461437
     C     1.2180676267  -15.1900043379    1.3633236782
     C     1.1695969373  -15.6120814819    2.7041511490
     C     0.9900611825  -14.6590834209    3.6807083699
     H     0.7267804802    1.5203543286    1.3415420986
     H     0.0217906844    2.1894358164   -1.1114238710
     H     0.8123681313   -1.0811292892    1.6492399422
     H    -0.1396635714   -3.0042966212   -1.6917895764
     H     0.6668805102   -3.3862757037    1.2471967888
     H    -0.2841394190   -5.2945893152   -2.1052799976
     H    -0.2186571324   -7.8775036852   -1.8200958341
     H     0.8074277196   -9.8308676379   -1.2157594536
     H     0.3106377455   -8.5040976357    2.8503407927
     H     0.4120642641  -10.1850282828    4.6378027392
     H     0.6318768415  -12.5482876756    5.3319086611
     H     1.3600209056  -15.9252458662    0.5719999121
     H     1.2724911483  -16.6646081475    2.9491817226
     H     0.9453563902  -14.9299013711    4.7329441189
