36
-1.6739428041944063e+03 frame 33   xyz file generated by TeraChem
     C     0.2884300772    1.4127272555   -0.6262954953
     S    -0.7335157046    0.3358894604   -1.5001647614
     C     0.4433195328   -0.9118285228   -1.4518315929
     C     1.5830046022   -0.5225433134   -0.7878154723
     C     1.4783309450    0.8269837023   -0.3120020968
     C     2.7566304974   -1.3839634455   -0.5895968540
     C     3.6086054108   -1.2045352152    0.5278463680
     N     4.6767439252   -1.9319348684    0.7848413814
     C     4.9945688543   -2.9302490290   -0.0669435702
     C     4.2145379287   -3.2108315340   -1.2182425814
     C     3.0881835848   -2.4069825451   -1.4623844351
     C     4.5855997272   -4.2759184182   -2.1016477524
     C     5.6842482592   -5.0340380934   -1.8518319908
     C     6.4976324409   -4.7866913315   -0.6987766021
     C     6.1669798125   -3.7402124632    0.1999845562
     N     6.9121223662   -3.4782428005    1.2949163457
     C     7.9755381344   -4.2218348100    1.5233373644
     C     8.4108148164   -5.2870867634    0.6972046258
     C     7.6445221941   -5.5510880922   -0.4259530999
     C     9.6113463278   -6.0635985354    1.0352270520
     C     9.8186066619   -7.3676618153    0.6507094622
     S    11.3230749911   -7.9741360076    1.2090127640
     C    11.7068604055   -6.4794627376    1.9748199865
     C    10.7134711766   -5.5617735101    1.8047357366
     H    -0.0433474499    2.4191399342   -0.4051799857
     H     0.2238907798   -1.8777766806   -1.8889595284
     H     2.2696951511    1.3455525776    0.2187294645
     H     3.3794510133   -0.4229426766    1.2513464074
     H     2.4928596379   -2.5897627234   -2.3539987813
     H     3.9664059027   -4.4615872629   -2.9757522381
     H     5.9678553648   -5.8428122903   -2.5205390557
     H     8.5358578897   -3.9869003979    2.4275363136
     H     7.9295000495   -6.3403605274   -1.1178732638
     H     9.1513797277   -8.0114383050    0.0916427965
     H    12.6485319647   -6.3609037990    2.4954452347
     H    10.7726593705   -4.5499103315    2.1912035334
