29
-1.1224530465673101e+03 frame 28   xyz file generated by TeraChem
     C     0.3044107236    1.4505631388   -0.4521618932
     S    -0.7464129921    0.3789017786   -1.2976558251
     C     0.3972635746   -0.8977524658   -1.2177544179
     C     1.5472695701   -0.5216755399   -0.5641811764
     C     1.4787450667    0.8418460764   -0.1231738425
     C     2.6981537539   -1.4081394993   -0.3436271938
     C     3.5514067948   -1.2257031085    0.7724504956
     N     4.6003678129   -1.9738502208    1.0480025417
     C     4.8959350298   -2.9979091225    0.2191968803
     C     4.1116038205   -3.2844734218   -0.9272290032
     C     3.0060572175   -2.4578889708   -1.1924549946
     C     4.4555909824   -4.3784846095   -1.7851838796
     C     5.5333761763   -5.1592051317   -1.5137408038
     C     6.3519004946   -4.9056864758   -0.3667170439
     C     6.0496095926   -3.8302349614    0.5089422826
     N     6.7952040230   -3.5544215705    1.6006458150
     C     7.8407905846   -4.3227882619    1.8500254561
     C     8.2284936898   -5.4124642095    1.0497868956
     C     7.4752115160   -5.7013504371   -0.0653029220
     H    -0.0005293567    2.4707185319   -0.2568305971
     H     0.1521291146   -1.8684255811   -1.6300349433
     H     2.2842182742    1.3525682964    0.3937850410
     H     3.3398155182   -0.4231673680    1.4781944654
     H     2.4084302756   -2.6455883060   -2.0815255071
     H     3.8331784477   -4.5681076687   -2.6561213587
     H     5.7963472985   -5.9914501361   -2.1619084705
     H     8.4204811615   -4.0733948102    2.7381132198
     H     9.1003212207   -6.0024758857    1.3148807645
     H     7.7297910679   -6.5322114754   -0.7191588576
