106
-2.6898635702135634e+03 frame 69   xyz file generated by TeraChem
     N     1.0144049984    1.2150580501   -0.8483450495
     C     0.5284112487    0.9972995790   -2.0755002306
     C    -0.5886236799    0.2106552241   -2.3102048966
     C    -1.2147204059   -0.3675818259   -1.1984408769
     N    -0.7311148568   -0.1529737219    0.0416932555
     C     0.3435087211    0.6177464524    0.1406795402
     C    -2.3958338728   -1.2064676182   -1.3634928746
     C    -3.0394486936   -1.7842021628   -0.3296903670
     C    -4.2225801570   -2.6299902171   -0.3930684465
     C    -4.8595383303   -2.9855606272   -1.5968340183
     C    -5.9856201191   -3.7880925092   -1.5971809541
     C    -6.5244569579   -4.2712358202   -0.3875642831
     C    -5.8921137280   -3.9229411997    0.8189383329
     C    -4.7640014911   -3.1186906609    0.8086104774
     C    -7.6839466220   -5.0907291947   -0.3915429069
     C    -8.6816259970   -5.7890029432   -0.3991507004
     C    -9.8468668274   -6.6007534501   -0.4113167823
     C   -10.3904243994   -7.1005241289    0.7861654266
     C   -11.5330910718   -7.8832461206    0.7741132626
     C   -12.1631652019   -8.2020542796   -0.4372916370
     C   -11.6221164492   -7.7147386479   -1.6355806065
     C   -10.4867031184   -6.9220179088   -1.6224277169
     N   -13.3263087988   -9.0002319398   -0.4519160340
     C   -14.3858293201   -8.6769942275   -1.3241397180
     C   -15.0912638671   -9.6862510962   -1.9956607369
     C   -16.1283013901   -9.3652997286   -2.8557304427
     C   -16.4870988468   -8.0243020171   -3.0838699431
     C   -15.7737355463   -7.0172120591   -2.4085574497
     C   -14.7457052876   -7.3384369073   -1.5380015743
     C   -17.5406756717   -7.6941059974   -3.9769942974
     C   -18.4402049633   -7.4090481560   -4.7468952654
     C   -19.4849953271   -7.0702362390   -5.6466868248
     C   -19.8007375985   -5.7201061778   -5.9005645164
     C   -20.8143064989   -5.3861604836   -6.7799016343
     C   -21.5567437102   -6.3813318480   -7.4429391095
     C   -21.2373909962   -7.7252416950   -7.1826409588
     C   -20.2231298422   -8.0702259334   -6.3038813270
     C   -22.6327774803   -6.0891929205   -8.3789882192
     C   -23.0662637279   -4.8717659625   -8.7620975375
     C   -24.1575107635   -4.6737384155   -9.7080381285
     C   -24.5586523276   -3.3823674026  -10.0740204793
     C   -25.6043784207   -3.2714774396  -10.9772034159
     N   -26.2266013647   -4.3356223071  -11.4968192680
     C   -25.7661309942   -5.5192479146  -11.0819982275
     N   -24.7788456180   -5.7515277463  -10.2275045319
     C   -13.4204182626  -10.1237599550    0.3929537816
     C   -14.6353558840  -10.4505301283    1.0133107828
     C   -14.7298382858  -11.5631450348    1.8327344072
     C   -13.6096143245  -12.3798586244    2.0712850772
     C   -12.3919116099  -12.0404003425    1.4539421647
     C   -12.3000612166  -10.9357654718    0.6240449342
     C   -13.7026473064  -13.5206948194    2.9117686634
     C   -13.7764161207  -14.5027607684    3.6281970007
     C   -13.8522111652  -15.6503981729    4.4607113377
     C   -12.7105087674  -16.4459802318    4.6860870131
     C   -12.7797409535  -17.5654953048    5.4945691715
     C   -13.9873256139  -17.9408010168    6.1127224926
     C   -15.1212878600  -17.1425475723    5.8829737065
     C   -15.0622177183  -16.0187541134    5.0745669665
     C   -14.1187129654  -19.1071977174    6.9741446999
     C   -13.1481310956  -19.9795132801    7.3112940804
     C   -13.3696273230  -21.1243776410    8.1863721708
     C   -12.3196481075  -21.9983098256    8.4964110762
     C   -12.6037067512  -23.0642769569    9.3357720512
     N   -13.8217200189  -23.2775702505    9.8461904562
     C   -14.7501933586  -22.3862432618    9.4875471148
     N   -14.6002517498  -21.3325285174    8.6963604158
     H     1.0564151385    1.4728911150   -2.9003683492
     H    -0.9644887654    0.0487453779   -3.3156083575
     H     0.7247324488    0.7835865198    1.1476269984
     H    -2.7358265964   -1.3403829925   -2.3880032929
     H    -2.6416841086   -1.6019461568    0.6678071537
     H    -4.4692893561   -2.6303953116   -2.5461123577
     H    -6.4654634896   -4.0526279269   -2.5347754340
     H    -6.2954218564   -4.2882191961    1.7586185684
     H    -4.2854028891   -2.8561953772    1.7491207277
     H    -9.9153894620   -6.8548078042    1.7312810574
     H   -11.9492320030   -8.2475867405    1.7085076222
     H   -12.0957797075   -7.9651577860   -2.5799523189
     H   -10.0746323774   -6.5546582489   -2.5575604291
     H   -14.8167760308  -10.7259948046   -1.8459946498
     H   -16.6614322512  -10.1561972576   -3.3748640081
     H   -16.0439987407   -5.9768037079   -2.5627087535
     H   -14.2157115151   -6.5489413360   -1.0139426177
     H   -19.2373639887   -4.9397879392   -5.3975888736
     H   -21.0324081650   -4.3363509197   -6.9530262073
     H   -21.8002948675   -8.5089049275   -7.6840912616
     H   -19.9918295610   -9.1147172952   -6.1178076268
     H   -23.1333135195   -6.9551114542   -8.8106887078
     H   -22.6114145873   -3.9627860370   -8.3749818725
     H   -24.0690789628   -2.5038300342   -9.6655304910
     H   -25.9597008394   -2.2938439627  -11.2986756907
     H   -26.2608308243   -6.3977748921  -11.4946935965
     H   -15.5071502869   -9.8234914672    0.8532431952
     H   -15.6760583169  -11.8018699209    2.3091600112
     H   -11.5183412023  -12.6642723128    1.6180394138
     H   -11.3556169215  -10.7010387315    0.1426240024
     H   -11.7707477019  -16.1706900710    4.2166528906
     H   -11.8816875044  -18.1571513123    5.6467386668
     H   -16.0638366972  -17.4158661144    6.3513425373
     H   -15.9501265636  -15.4156176080    4.9103392241
     H   -15.1120127306  -19.2830485722    7.3846126437
     H   -12.1329457617  -19.8656099553    6.9379920105
     H   -11.3229615277  -21.8454772477    8.0945362504
     H   -11.8278291845  -23.7763289782    9.6121458095
     H   -15.7487503264  -22.5440356856    9.8935300279
