56
-1.3613631728004316e+03 frame 54   xyz file generated by TeraChem
     C     8.1796883708   -1.1285072002   -0.9581476912
     C     7.6296597377    0.0914459137   -0.5645673346
     C     6.2512291581    0.2430137110   -0.4764537126
     C     5.4005273952   -0.8339673278   -0.7832796261
     C     5.9629944089   -2.0605201451   -1.1793950828
     C     7.3427109508   -2.2014121138   -1.2649090146
     C     3.9880855528   -0.6855753585   -0.6924490139
     C     2.7800911147   -0.5604144940   -0.6132519495
     C     1.3698311532   -0.4169634057   -0.5175439757
     C     0.7976047396    0.8216935975   -0.1729473678
     C    -0.5764893927    0.9601599869   -0.0765056076
     C    -1.4248834823   -0.1357532134   -0.3204157427
     C    -0.8528795362   -1.3742681736   -0.6660749050
     C     0.5210348463   -1.5122515425   -0.7635308074
     C    -2.8349405222    0.0028648544   -0.2174858585
     C    -4.0435566748    0.1148481525   -0.1281555158
     C    -5.4553496326    0.2403171209   -0.0197957873
     C    -6.2866112217   -0.8825784677   -0.1784695971
     C    -7.6641487182   -0.7610192887   -0.0774106237
     C    -8.2412587698    0.4822839376    0.2007934249
     C    -7.4233699365    1.6044952926    0.3677241445
     C    -6.0464846724    1.4870473959    0.2504969758
     N    -9.6426230650    0.6029845065    0.3118004458
     C   -10.4639304800   -0.1744610375    1.1247612692
     C   -10.1211039820   -1.1835221865    2.0260122593
     C   -11.1503164239   -1.7876226932    2.7392677271
     C   -12.4882347572   -1.3990861975    2.5693236088
     C   -12.8216399806   -0.3844318241    1.6812408356
     C   -11.8052154200    0.2395906627    0.9527911846
     C   -11.7897310888    1.3135844038   -0.0123736551
     C   -10.4389924792    1.5102973656   -0.3826086216
     C   -10.0745532744    2.4618887505   -1.3362979175
     C   -11.0873132361    3.2298600328   -1.8998459704
     C   -12.4309033841    3.0573163621   -1.5325893266
     C   -12.7891799368    2.0992290462   -0.5929306758
     H     9.2581295053   -1.2426709463   -1.0259095459
     H     8.2784084777    0.9295836931   -0.3248217632
     H     5.8197183640    1.1915341897   -0.1703004235
     H     5.3082996051   -2.8939197311   -1.4170551050
     H     7.7672226274   -3.1533988901   -1.5719978188
     H     1.4444863932    1.6725596413    0.0183650552
     H    -1.0086252709    1.9198522592    0.1904307204
     H    -1.4997954261   -2.2253008564   -0.8565521808
     H     0.9532776649   -2.4719063736   -1.0303970174
     H    -5.8429526436   -1.8494362251   -0.3955434961
     H    -8.3001865816   -1.6281194944   -0.2277373335
     H    -7.8696974995    2.5659467736    0.6029468159
     H    -5.4152151452    2.3604429913    0.3827639458
     H    -9.0892724618   -1.4873728988    2.1717895579
     H   -10.9084026427   -2.5773732442    3.4455329293
     H   -13.2675252398   -1.8943349499    3.1417894024
     H   -13.8561960567   -0.0745711905    1.5562888971
     H    -9.0398424528    2.5989157247   -1.6344473109
     H   -10.8282562537    3.9785535862   -2.6437480358
     H   -13.1962042329    3.6768099220   -1.9917335697
     H   -13.8305387422    1.9566685987   -0.3150741231
