96
-2.1888099143415129e+03 frame 72   xyz file generated by TeraChem
     C     1.3282728467    2.7404540909    1.4322610940
     C     0.7851108099    1.5530186767    1.9183187841
     C    -0.4837581435    1.1463466813    1.5131885425
     C    -1.2320708235    1.9155780376    0.6105613678
     C    -0.6751316603    3.1090666020    0.1326347144
     C     0.5909492693    3.5177309061    0.5400181187
     C    -2.6029580311    1.4895813808    0.2295779428
     C    -3.4612353932    1.0657743424    1.2490354806
     C    -4.7803162529    0.6624035150    1.0315553042
     C    -5.2781854906    0.6847231776   -0.2885559235
     C    -4.4199369470    1.1085744792   -1.3079851957
     C    -3.1008265999    1.5119064664   -1.0905195988
     C    -2.2649631976    1.8338905264   -2.2781971222
     C    -1.0819392532    1.1160056141   -2.5051844607
     C    -0.3191714208    1.3128138841   -3.6498430149
     C    -0.7260238786    2.2465163237   -4.6020953389
     C    -1.8868716527    2.9794797153   -4.3909639311
     C    -2.6592029379    2.7849563635   -3.2404732548
     N    -3.8301429455    3.5784835096   -3.0545791068
     C    -4.8996125569    3.4833944542   -3.9544886725
     C    -5.0602030125    2.3380494078   -4.7547794515
     C    -6.1258411794    2.2385603744   -5.6433819409
     C    -7.0606084514    3.2651733463   -5.7596982650
     C    -6.9012050124    4.4052851043   -4.9737443834
     C    -5.8351993942    4.5239528933   -4.0888036870
     C    -3.8046019396    4.5573440135   -2.0279783998
     C    -2.7109135603    5.4224378557   -1.9131218067
     C    -2.6688537390    6.3711156935   -0.8933622585
     C    -3.7217654648    6.4785483873    0.0120091337
     C    -4.8164516378    5.6215761979   -0.1049732023
     C    -4.8576477928    4.6619786630   -1.1104967446
     C    -6.6489935677    0.2584697919   -0.6695732245
     C    -7.3975325280    1.0276147310   -1.5720861077
     C    -8.6662508081    0.6205890401   -1.9773385310
     C    -9.2089696307   -0.5671215993   -1.4914797877
     C    -8.4714253277   -1.3443020530   -0.5993302617
     C    -7.2054995093   -0.9353022481   -0.1918258158
     C    -5.6163312574    0.3401504372    2.2190408899
     C    -6.7993859964    1.0579847239    2.4460354590
     C    -7.5624854212    0.8606946606    3.5903899237
     C    -7.1559483924   -0.0734889139    4.5423130563
     C    -5.9950738506   -0.8063986856    4.3311845508
     C    -5.2223979231   -0.6113544611    3.1809931054
     N    -4.0514023928   -1.4047087461    2.9948855943
     C    -4.0772612040   -2.3839748735    1.9685614793
     C    -3.0246904319   -2.4881905687    1.0505086849
     C    -3.0658620696   -3.4480152694    0.0451913426
     C    -4.1601455883   -4.3056111517   -0.0709349578
     C    -5.2126076371   -4.1986320788    0.8350271176
     C    -5.1705054624   -3.2497162557    1.8545713644
     C    -2.9830241769   -1.3116748451    3.8962963816
     C    -2.8222511309   -0.1671311144    4.6977373512
     C    -1.7574731454   -0.0693780588    5.5875231912
     C    -0.8237370325   -1.0969464711    5.7038895612
     C    -0.9832490776   -2.2362074882    4.9167548753
     C    -2.0484619929   -2.3531449766    4.0306099686
     H     2.3176724310    3.0600724496    1.7488517364
     H     1.3489688798    0.9382281499    2.6152540226
     H    -0.8982302662    0.2170499413    1.8967369846
     H    -1.2487457958    3.7307567944   -0.5480628560
     H     0.9994459798    4.4520436237    0.1631817182
     H    -3.0934565767    1.0977847644    2.2703837269
     H    -4.7877079068    1.0765433874   -2.3293292260
     H    -0.7743310921    0.3754174086   -1.7721228332
     H     0.5865785208    0.7322537000   -3.8021353719
     H    -0.1366602021    2.4112662763   -5.4999612874
     H    -2.2127400916    3.7201671685   -5.1164352433
     H    -4.3442551809    1.5249493184   -4.6826139215
     H    -6.2241173208    1.3395690297   -6.2469466859
     H    -7.8937953494    3.1807048832   -6.4513969416
     H    -7.6089352135    5.2267795415   -5.0547746807
     H    -5.7242305071    5.4292632615   -3.5012973533
     H    -1.8954560756    5.3470831391   -2.6274634223
     H    -1.8117560985    7.0351061721   -0.8163440237
     H    -3.6900973772    7.2213658351    0.8042486320
     H    -5.6396179882    5.6893092468    0.6016196764
     H    -5.7019533881    3.9837215455   -1.1882992117
     H    -6.9833602520    1.9571053057   -1.9554887778
     H    -9.2302825809    1.2352879920   -2.6742158504
     H   -10.1982460513   -0.8870418846   -1.8081460060
     H    -8.8796307775   -2.2788139604   -0.2226731381
     H    -6.6316747753   -1.5569021818    0.4887841742
     H    -7.1067743518    1.7988920770    1.7132049985
     H    -8.4682428206    1.4412348361    3.7427079802
     H    -7.7455841941   -0.2386513672    5.4399252044
     H    -5.6694376926   -1.5473933205    5.0564460936
     H    -2.1807638434   -1.8093919963    1.1277367786
     H    -2.2430624937   -3.5154536997   -0.6618570950
     H    -4.1918923458   -5.0485851780   -0.8630248692
     H    -6.0693477509   -4.8631479460    0.7585850126
     H    -5.9855751024   -3.1746300381    2.5693860087
     H    -3.5373742543    0.6466868897    4.6254138091
     H    -1.6589983855    0.8289966195    6.1919721829
     H     0.0088071878   -1.0138015806    6.3965194505
     H    -0.2762871738   -3.0583663938    4.9977608698
     H    -2.1595609178   -3.2577729885    3.4420767771
