108
-2.4957372060451107e+03 frame 80   xyz file generated by TeraChem
     C    -8.8821940753    6.0796882621   -1.9739144958
     C    -8.5015950292    4.7638642742   -2.2372463162
     C    -7.5166916670    4.1430973204   -1.4783567035
     C    -6.8771069952    4.8359759135   -0.4398351231
     C    -7.2501242480    6.1635892023   -0.1876771840
     C    -8.2498452887    6.7703619071   -0.9428300420
     N    -5.8694433701    4.1940768753    0.3166157282
     C    -4.8972668445    3.4120477086   -0.3638479820
     C    -4.3707229657    3.8771565927   -1.5763490094
     C    -3.3665086841    3.1829052851   -2.2376628840
     C    -2.8472909651    2.0177314202   -1.6777121294
     C    -3.3634350696    1.5526872281   -0.4733314426
     C    -4.4073876170    2.2118560725    0.1902404877
     C    -4.8896521164    1.6388871526    1.4784550707
     C    -3.9939773345    1.6120598939    2.5500047186
     C    -4.3007452821    1.0821694699    3.8078403536
     C    -5.5917554194    0.5437035183    4.0117639012
     C    -6.4871547207    0.5796272928    2.9361441514
     C    -6.1712609303    1.0907992410    1.6752850405
     C    -7.2234151554    1.0060639097    0.6240951774
     C    -8.4052929475    1.6989350498    0.7979659800
     C    -9.4605777355    1.6088076344   -0.1339749448
     C    -9.3313308253    0.8188786652   -1.2487857352
     C    -8.1490817366    0.0663517525   -1.4607950902
     C    -7.0833076987    0.1408726515   -0.5086589949
     C    -5.9488959481   -0.6903458882   -0.7045667605
     C    -5.8535041438   -1.5168165163   -1.7992877890
     C    -6.8910330587   -1.5591693196   -2.7579585804
     C    -8.0138889972   -0.7873722375   -2.5863936295
     C    -6.0636550808    0.0196530171    5.3238613283
     C    -5.7701874032    0.7395822193    6.4934531786
     C    -6.2186880147    0.3363450313    7.7448670795
     C    -6.9861263514   -0.8193227669    7.8658520599
     C    -7.3003070524   -1.5452075735    6.7247662059
     C    -6.8591092233   -1.1422206785    5.4595285889
     N    -7.2711883140   -1.9240587284    4.3376281670
     C    -8.6440691624   -2.0330832992    4.0603849358
     C    -9.5187841301   -0.9882165763    4.4069518544
     C   -10.8798840484   -1.0854912707    4.1374356726
     C   -11.4061731216   -2.2136037902    3.5116369964
     C   -10.5425678792   -3.2521331372    3.1667184173
     C    -9.1813889942   -3.1734081068    3.4403140391
     C    -6.3314397400   -2.7663090896    3.6932822651
     C    -5.4570093124   -3.5637589671    4.4385306456
     C    -4.5557446754   -4.4068202013    3.7908461534
     C    -4.5152489151   -4.4658263775    2.3997459775
     C    -5.3836856543   -3.6667343158    1.6555259230
     C    -6.2818314436   -2.8193787498    2.2940764108
     C    -3.2430070172    1.2097851838    4.8536103918
     C    -2.8647429257    2.4849317912    5.2313513276
     C    -1.8648110559    2.7063984756    6.2015269563
     C    -1.2298247341    1.6422774854    6.7905822066
     C    -1.5582884934    0.3158359954    6.4146101604
     C    -2.5707936454    0.0863701131    5.4293292991
     C    -2.8443478608   -1.2505721797    5.0447648186
     C    -2.1678744791   -2.3031218449    5.6150547616
     C    -1.1826745700   -2.0761650711    6.6013855110
     C    -0.8854061605   -0.7928254476    6.9891474272
     C    -5.5345156985    4.7045782562    1.5970790072
     C    -6.5302645112    4.8500411022    2.5719525274
     C    -6.2182502029    5.3714249518    3.8220761009
     C    -4.9086072193    5.7453620196    4.1265098610
     C    -3.9153272512    5.5941439574    3.1611418052
     C    -4.2227931204    5.0825058163    1.9024216877
     H    -9.6585408741    6.5586091023   -2.5639975778
     H    -8.9861676237    4.2041389482   -3.0334062877
     H    -7.2391815736    3.1138795695   -1.6828747206
     H    -6.7552847952    6.7236996948    0.5992144175
     H    -8.5225496584    7.8005914958   -0.7276872737
     H    -4.7507648934    4.8083419716   -1.9859557123
     H    -2.9735272996    3.5675311176   -3.1750315988
     H    -2.0496082496    1.4728307148   -2.1747103376
     H    -2.9695576392    0.6392681951   -0.0348608553
     H    -3.0047069951    2.0378344062    2.4038647249
     H    -7.4863580320    0.1832997088    3.0813402065
     H    -8.5180493917    2.3387113621    1.6690450683
     H   -10.3708272932    2.1778488147    0.0343419305
     H   -10.1351170618    0.7481496965   -1.9780831315
     H    -5.1555475929   -0.6782763853    0.0358313144
     H    -4.9756931940   -2.1449194089   -1.9274491337
     H    -6.8019966875   -2.2124048228   -3.6219009618
     H    -8.8277993225   -0.8256201790   -3.3069943329
     H    -5.1941036427    1.6545029164    6.4088269225
     H    -5.9751184681    0.9307289843    8.6212206503
     H    -7.3390545317   -1.1526634316    8.8379322753
     H    -7.9068946168   -2.4442780275    6.7947189911
     H    -9.1279806311   -0.1000707143    4.8946689184
     H   -11.5321304611   -0.2615029801    4.4163255910
     H   -12.4690008282   -2.2836505161    3.2985729572
     H   -10.9311798773   -4.1475586550    2.6877175949
     H    -8.5317098736   -4.0014231106    3.1762109888
     H    -5.4926624016   -3.5274903634    5.5237334284
     H    -3.8928243305   -5.0336959496    4.3819844972
     H    -3.8141071320   -5.1275991882    1.8988898281
     H    -5.3569089678   -3.6918768303    0.5690774034
     H    -6.9519330942   -2.1931217166    1.7121122923
     H    -3.3701394980    3.3374663912    4.7846284006
     H    -1.6082863496    3.7250126103    6.4803414491
     H    -0.4611298315    1.7981116771    7.5440105369
     H    -3.5960702666   -1.4402231559    4.2845200878
     H    -2.3905873285   -3.3187309383    5.3009153292
     H    -0.6580189345   -2.9181793018    7.0451692076
     H    -0.1217574717   -0.6032184409    7.7402176381
     H    -7.5498516051    4.5566298290    2.3386934776
     H    -7.0028898057    5.4763749215    4.5669180868
     H    -4.6666678124    6.1504247699    5.1052370896
     H    -2.8919783778    5.8886104474    3.3802303488
     H    -3.4458056352    4.9844411165    1.1497934516
