27
-1.2153710494722616e+03 frame 45   xyz file generated by TeraChem
     O     1.7592839859    0.4027211547   -1.1565424450
     N     2.0899896034   -0.0101860292   -0.0510344355
     O     1.7497956603   -1.0998189317    0.3948755808
     C     2.9293026604    0.8343710261    0.7719728584
     C     3.3235716162    2.0804766114    0.2895009903
     C     4.1270079938    2.8805868202    1.0806495161
     C     4.5566492385    2.4566214261    2.3550320185
     C     4.1380523075    1.1885898932    2.8098086741
     C     3.3285780468    0.3831406965    2.0277182933
     C     5.4139395880    3.3011982866    3.1687521690
     S     6.2288178513    4.6876280796    2.4873864527
     C     6.9608982507    5.1029162370    3.9859772087
     C     6.6079738315    4.2282800677    4.9716252920
     C     5.7248342870    3.2009653894    4.5121292028
     O     5.2519673962    2.2429903567    5.3399787495
     C     5.4310499767    2.5597597201    6.7263133368
     C     6.8222369472    3.0925079656    6.9753306767
     O     7.0283874366    4.3109500284    6.2579015075
     H     2.9945181805    2.4116635876   -0.6886198218
     H     4.4161110464    3.8580686863    0.7046045161
     H     4.4603432336    0.8341654276    3.7809458571
     H     3.0104637487   -0.5925807196    2.3763438464
     H     7.6207229899    5.9565649337    4.0637420377
     H     5.2667160411    1.6294966573    7.2726325076
     H     4.6772158410    3.2979955492    7.0252069877
     H     7.5739386274    2.3545836428    6.6676577793
     H     6.9597569617    3.3301748866    8.0318181964
