18
-4.5957717505576329e+02 frame 52   xyz file generated by TeraChem
     O     1.4925917530   -1.7018765878    1.0080155600
     C     2.0596590191   -0.7486029580    0.4972187027
     C     2.9250025057    0.1782812729    1.2390928570
     C     3.1234694373   -0.0172414460    2.6108862632
     C     3.9325044602    0.8335295341    3.3472270400
     C     4.5551699541    1.9015089042    2.6980552362
     C     4.3776154298    2.1229617303    1.3355819456
     C     3.5607778751    1.2627977315    0.5935174143
     O     3.3323539440    1.3987714262   -0.7282864752
     C     3.9477033592    2.4800049404   -1.4112444312
     H     1.9397233119   -0.5399180226   -0.5802715692
     H     2.6207629537   -0.8603443266    3.0768226295
     H     4.0806427150    0.6741775935    4.4109079294
     H     5.1931825601    2.5790815724    3.2596590821
     H     4.8739419525    2.9619618106    0.8612427667
     H     5.0400794486    2.4094599726   -1.3603362615
     H     3.6212262044    3.4424415147   -1.0017514521
     H     3.6245614304    2.3958337302   -2.4492808358
