35
-1.3870645965153840e+03 frame 39   xyz file generated by TeraChem
     N    -0.6302480960   -2.7878370635   -3.3741652726
     C    -0.4886857214   -2.0331959306   -2.4985006763
     C    -0.3289302828   -1.1069475910   -1.4332841799
     C     0.6628265842   -1.1951956654   -0.4770955206
     C     1.6922405834   -2.1349680492   -0.3214098480
     S     2.0329633322   -3.5151273972   -1.3413912725
     C     3.4189943851   -3.9760119899   -0.3952641759
     C     3.5941049331   -3.1090693555    0.6709924130
     C     2.6350581409   -2.0730549792    0.7095869850
     O     2.6303464783   -1.1111563162    1.6375943089
     C     3.8475686115   -1.0490557169    2.4011201574
     C     4.3120318462   -2.4391809527    2.7646543934
     O     4.5911724711   -3.2003019765    1.5850316644
     C     4.2023542751   -5.1449959057   -0.7613200121
     C     4.1510498616   -5.6709063803   -2.0614085349
     C     4.8714764315   -6.8017398861   -2.4208375491
     C     5.6734694801   -7.4420910168   -1.4692338938
     C     5.7405945761   -6.9272737719   -0.1661399179
     C     5.0210956066   -5.8004244435    0.1813213810
     O     6.4104425358   -8.5457523349   -1.7075157560
     C     6.3912601582   -9.0925557864   -3.0166868355
     C    -1.2668012698   -0.0391477428   -1.3789782157
     N    -2.0360257759    0.8335427425   -1.3364882023
     H     0.6547441086   -0.4161750422    0.2825689021
     H     3.6136884836   -0.4671060404    3.2935797469
     H     4.6055628753   -0.5260812052    1.8078074506
     H     3.5469903961   -2.9566197598    3.3562198290
     H     5.2443786201   -2.3979568643    3.3297586539
     H     3.5499533865   -5.1810501157   -2.8238422198
     H     4.8066883839   -7.1691705412   -3.4387947354
     H     6.3649446372   -7.4347070595    0.5633123717
     H     5.0809560188   -5.4219039215    1.1950670148
     H     7.0458443708   -9.9641974375   -2.9846937108
     H     6.7729371027   -8.3743033692   -3.7513840282
     H     5.3798914597   -9.4050198035   -3.3010492651
