58
-1.9079707720091683e+03 frame 86   xyz file generated by TeraChem
     C     3.4027206543    0.4136365584   -1.3115917098
     O     4.7614698591    0.3510597583   -0.9151438038
     C     5.0514683321    0.3936610359    0.4071934471
     C     4.0669225961    0.5030783279    1.4216995182
     C     4.4451326670    0.5406892751    2.7429205079
     C     5.8074130990    0.4732743083    3.1236287956
     C     6.7928593114    0.3605096349    2.0955428987
     C     6.3908335157    0.3243239705    0.7466535199
     C     8.1584409300    0.2902263130    2.4846288033
     C     8.5190555706    0.3289267578    3.8039014294
     C     7.5425386025    0.4373666571    4.8405484206
     C     6.2053342900    0.5056827536    4.4792390336
     C     7.9520418237    0.4631829975    6.2380167831
     S     9.5413704553   -0.0793341203    6.7106153173
     C     9.2627000362    0.2745274806    8.3957284779
     C     7.9815428602    0.7832568764    8.5541134416
     C     7.2481913729    0.8962108877    7.3444784166
     O     5.9887190150    1.4006995874    7.3105944170
     C     5.6734100881    2.1402183174    8.4939815178
     C     6.0669425759    1.3586453816    9.7250557187
     O     7.4851702769    1.1500342047    9.7508568073
     C    10.1139398371   -0.0343073716    9.4968483160
     C    11.3959837852   -0.5030392803    9.5279004676
     C    12.3239788768   -0.6639370565    8.3828663105
     C    13.0032111575   -1.8649765353    8.1677099991
     C    13.9125650478   -1.9977771219    7.1212195410
     C    14.1709396876   -0.9218264951    6.2701768688
     C    13.4885218225    0.2959381197    6.4792170163
     C    12.5881759924    0.4145622860    7.5257708011
     O    13.7655113317    1.3938203101    5.7117966941
     C    13.2515128987    1.3374198039    4.3840719297
     O    15.0611090293   -0.9379204930    5.2537363326
     C    15.7926721118   -2.1322470669    5.0320134014
     C    11.9184186373   -0.8598072272   10.8060773158
     N    12.3681468162   -1.1634811325   11.8376997063
     H     3.4083168514    0.3602657898   -2.4011960290
     H     2.9368547842    1.3550496870   -0.9971527793
     H     2.8281417166   -0.4295082307   -0.9102440282
     H     3.0147752979    0.5574730345    1.1645083766
     H     3.6869585702    0.6247857597    3.5179537678
     H     7.1331925471    0.2397359732   -0.0425644466
     H     8.9208801805    0.2116606621    1.7134303980
     H     9.5745067776    0.2926127448    4.0638861131
     H     5.4370437368    0.5767655019    5.2419838894
     H     4.5953795846    2.3085293951    8.4716422198
     H     6.1950138846    3.1049144885    8.4693643198
     H     5.5604760171    0.3864022841    9.7424247651
     H     5.8247420520    1.9124072783   10.6336603823
     H     9.6214761998    0.1018018534   10.4585383224
     H    12.8256269967   -2.7120568583    8.8250586256
     H    14.4259337116   -2.9429776504    6.9823545956
     H    12.1096754532    1.3772619696    7.6805044843
     H    13.5407852173    2.2746648290    3.9043444486
     H    12.1571609214    1.2563288252    4.3946314342
     H    13.6768444024    0.4956565499    3.8288377253
     H    16.4528463183   -1.9244192882    4.1891252103
     H    15.1264920569   -2.9653623665    4.7792021978
     H    16.3922760210   -2.3973789324    5.9105053235
