86
-2.4127985615778125e+03 frame 77   xyz file generated by TeraChem
     N    -0.4321734346   -1.2362251258   -3.5821053817
     C    -1.1438141544   -0.5321837910   -2.9840140867
     C    -2.0508747697    0.2820646082   -2.2709103672
     C    -1.6709460295    1.4415511096   -1.5891460420
     O    -2.6234670339    2.1105069900   -0.9473500910
     C    -2.0619731656    3.2857445122   -0.2946812849
     C    -0.5868521815    3.2292422891   -0.6420086499
     C    -0.4094617508    2.0770355555   -1.4381487727
     C     0.7942942795    1.6077604304   -1.9995896646
     N     1.8031905398    1.2412506911   -2.4553738499
     C     0.2756970678    4.2133483790   -0.1705365213
     C     1.6421376581    4.2801412248   -0.4701797371
     C     2.6626532764    5.1644712529   -0.1034891249
     C     2.6269123637    6.2507754483    0.7959591692
    Cl     1.2101223145    6.4786517688    1.7976133995
     C     3.6931551318    7.1502548411    0.9632337675
     C     3.6977313691    8.1019684689    1.9961495380
     C     4.7236382242    9.0100845387    2.2406060747
     C     4.8154596665    9.9736466394    3.2504039866
     N     4.0398417963   10.1489294846    4.3351826250
     C     2.9668829482    9.2813522626    4.7780859318
     C     4.4458495622   11.2816305073    5.0719187543
     C     5.5691118603   11.8396603656    4.4642423184
     C     5.9176353545   11.0281629749    3.2443165400
     C     5.8687207503   11.8759956664    1.9640449999
     C     7.2971037298   10.3619614284    3.3918071824
     C     6.1659983541   12.9636025079    5.0113333174
     C     5.6130925768   13.5208812881    6.1684485809
     C     4.4819740693   12.9550692736    6.7577463260
     C     3.8735569336   11.8206663407    6.2172136887
     C     4.8808128636    7.0745912690    0.0291503626
     C     4.6788535844    6.2073087354   -1.2227031116
     C     4.0207540056    4.9087599763   -0.7279309428
     C     3.7716366987    6.8523661828   -2.2774411418
     C     3.5572089697    6.1665410996   -3.4815055543
     C     2.7345823620    6.6894481061   -4.4728713071
     C     2.1072602690    7.9214608235   -4.2841882222
     C     2.3158683132    8.6167348565   -3.0975144848
     C     3.1399636509    8.0859061334   -2.1029557216
     C     6.0590797689    5.9673236214   -1.8428703906
     C     6.6900590279    4.7205590646   -1.8448173965
     C     7.9650301897    4.5642403429   -2.3923427099
     C     8.6339267328    5.6527025200   -2.9422785917
     C     8.0148341877    6.9030141083   -2.9473101254
     C     6.7424108969    7.0539758396   -2.4070792535
     C    -2.7576336552    4.5012301814   -0.8912284350
     C    -2.3232203188    3.1353412642    1.1972038173
     C    -3.4075377461   -0.1190093354   -2.2557316322
     N    -4.5225129466   -0.4599366916   -2.2516162749
     H    -0.1826622159    4.9726765106    0.4486000289
     H     1.9952959525    3.5054035068   -1.1462205721
     H     2.8225688282    8.1231628857    2.6311266798
     H     5.5669639625    9.0261878989    1.5570018693
     H     3.2735278477    8.2382507603    4.6697917954
     H     2.0523315047    9.4604171210    4.2042472404
     H     2.7682825506    9.4727536469    5.8320278912
     H     4.8930884231   12.3567807202    1.8434058452
     H     6.0680736927   11.2576968853    1.0829308819
     H     6.6372362693   12.6538918947    2.0183614039
     H     7.3446105640    9.7421862469    4.2925913933
     H     8.0649729819   11.1393162130    3.4626671354
     H     7.5226358705    9.7374338331    2.5212944969
     H     7.0451407771   13.4058020755    4.5496177263
     H     6.0652012457   14.4043462633    6.6098708628
     H     4.0593141121   13.4032461661    7.6524613107
     H     2.9869555641   11.3987259920    6.6790554446
     H     5.7396636250    6.6696076834    0.5817032793
     H     5.1716218719    8.0882096822   -0.2706346261
     H     4.6801099270    4.4459451783    0.0198658279
     H     3.9146157326    4.1935234229   -1.5484063260
     H     4.0543236144    5.2132658322   -3.6468665577
     H     2.5860698386    6.1366390288   -5.3971490366
     H     1.4651832339    8.3346161904   -5.0577312025
     H     1.8360724115    9.5790925604   -2.9373831935
     H     3.2771533890    8.6456021034   -1.1825904178
     H     6.1962089649    3.8513154954   -1.4217872144
     H     8.4322142781    3.5826360853   -2.3853608947
     H     9.6265327737    5.5301383991   -3.3677023897
     H     8.5227009470    7.7626213922   -3.3775141967
     H     6.2638223525    8.0305757674   -2.4326308229
     H    -2.5921693141    4.5465637997   -1.9716273820
     H    -2.3660711359    5.4152734150   -0.4355863459
     H    -3.8324039920    4.4443645822   -0.6934986677
     H    -1.8531444159    2.2251948071    1.5808662404
     H    -3.4013136248    3.0886312355    1.3787661268
     H    -1.9157437541    3.9962982539    1.7346198746
