63
-2.4085550574269582e+03 frame 63   xyz file generated by TeraChem
    Cl    -1.1518520545    1.6469404598    1.0007895803
     C     0.5521579156    1.3222152560    0.8145289548
     C     1.4537676802    1.8564156301    1.7291227999
     C     2.8099701348    1.5928583776    1.5744971665
     C     3.2756835239    0.8028332688    0.5167967926
     C     2.3439270326    0.2780071583   -0.3886914590
     C     0.9861058547    0.5323954619   -0.2464170696
     C     4.7073504775    0.5244914600    0.3579113433
     C     5.7902703011    1.0075188721    1.1142589619
     C     6.9088769396    0.4380653828    0.5294288887
     N     6.4680367556   -0.3238179581   -0.5103404188
     N     5.1432427766   -0.2839472285   -0.6183006761
     C     7.2242914906   -1.2219241967   -1.3753365066
     C     7.4497133217   -2.5817672617   -0.7552026396
     C     6.3791542140   -3.3490143430   -0.2957214552
     C     6.5914340513   -4.6113126728    0.2534161137
     C     7.8765498706   -5.1564371594    0.3568744751
     C     8.9419867322   -4.3771864510   -0.1138700573
     C     8.7368362238   -3.1126214371   -0.6558759844
     C     8.1482298925   -6.5369826573    0.9584630309
     C     6.8633643925   -7.2359901744    1.4114238594
     C     8.8364569479   -7.4238910063   -0.0920966064
     C     9.0711812391   -6.3851675314    2.1783508204
     C     8.2921779236    0.6227660914    0.8872424280
     N     9.3808860012    0.2084360012    0.3104297418
     N    10.4296600395    0.7064255675    1.0568718585
     C     9.9038992784    1.3738749235    2.0299645636
     O     8.5534365116    1.3640065350    1.9898397925
     C    10.5921099976    2.0755696643    3.1398083067
     O    10.1522612520    3.4204731875    3.1317463591
     C    10.6428177762    4.2465203254    4.0963734676
     C    11.5876862958    3.8705768596    5.0516975928
     C    12.0260027340    4.8019665119    5.9927931861
     C    11.5209354072    6.0942493732    5.9713564997
     C    10.5770993492    6.4775744534    5.0198526898
     C    10.1403805985    5.5518636706    4.0844628283
    Cl    12.0746959708    7.2577289873    7.1505640797
     H     1.1017262762    2.4692769117    2.5527093015
     H     3.5080733792    2.0094849484    2.2947911416
     H     2.6900997989   -0.3364326456   -1.2137660178
     H     0.2710452556    0.1227332287   -0.9527800608
     H     5.7839182407    1.6889781245    1.9525262914
     H     8.1761567464   -0.7430990385   -1.6110874148
     H     6.6359051008   -1.2990936889   -2.2936446117
     H     5.3667924092   -2.9571433045   -0.3627440803
     H     5.7303815212   -5.1733904873    0.6005782628
     H     9.9586821300   -4.7570528483   -0.0517738156
     H     9.5871558834   -2.5287492238   -0.9992332507
     H     6.1717538979   -7.3961568894    0.5764210826
     H     6.3411664446   -6.6633399686    2.1864629771
     H     7.1118646895   -8.2169373962    1.8317261460
     H     8.1955604914   -7.5565892849   -0.9712789635
     H     9.0464985555   -8.4135722983    0.3310782739
     H     9.7860580917   -6.9925246406   -0.4259463981
     H     8.5995574924   -5.7654269730    2.9497676637
     H    10.0265381027   -5.9222614794    1.9087684851
     H     9.2844262631   -7.3687985982    2.6141321984
     H    11.6719169890    1.9960314985    2.9718415096
     H    10.3442588317    1.5947138530    4.0960367915
     H    11.9961836615    2.8664115171    5.0816070727
     H    12.7617352581    4.5126845449    6.7364536067
     H    10.1869668458    7.4903260255    5.0104428736
     H     9.4054649384    5.8271319122    3.3341067459
