52
-2.4718282694387199e+03 frame 51   xyz file generated by TeraChem
    Cl    -1.1740324565   -2.4024959331   -0.9771520179
     C     0.3838777380   -1.7165698321   -0.5966600909
     C     0.5071026561   -0.8641023263    0.4955892341
     C     1.7520352755   -0.3212209276    0.7927304497
     C     2.8739906106   -0.6211412193    0.0116843037
     C     2.7199863525   -1.4832728800   -1.0820167003
     C     1.4824203607   -2.0319617493   -1.3913619573
     C     4.1868093570   -0.0460872933    0.3256349458
     C     4.5548216474    0.7875420611    1.3972634598
     C     5.9062528626    1.0229176826    1.2149941301
     N     6.2776024953    0.3415011914    0.0926008936
     N     5.2454354473   -0.2984307669   -0.4550930139
     C     7.5557541984    0.3189245462   -0.6035055689
     C     7.8079822433    1.5706541930   -1.4060748818
     C     6.8464616349    2.0961470171   -2.2729977423
     C     7.1371069342    3.2351740055   -3.0089999222
     C     8.4005651212    3.7963104594   -2.8361424255
     N     9.3301130909    3.3266873495   -2.0293368139
     C     9.0305721714    2.2300332927   -1.3251257661
    Cl     8.8131527721    5.2334972894   -3.7409117027
     C     6.7666574552    1.8321000280    2.0421603506
     N     6.4047656219    2.5858227721    3.0382485968
     N     7.5560725627    3.1765057242    3.5136920681
     C     8.5269199298    2.7380357144    2.7837116947
     O     8.1012001294    1.8756107112    1.8311973055
     C     9.9741420723    3.0394263903    2.8926680558
     O    10.4030617332    3.5032370090    1.6218151003
     C    11.7079830621    3.8127301751    1.4589334698
     C    12.6602539056    3.7738207756    2.4841424996
     C    13.9756326438    4.1178969846    2.2046811202
     C    14.3248512547    4.4949124550    0.9127986082
     C    13.3816819620    4.5369845387   -0.1157897388
     C    12.0725004301    4.1952811811    0.1584980987
     N    15.6982805728    4.8512583747    0.6269065010
     O    16.5115714770    4.8094594039    1.5423668782
     O    15.9835806401    5.1785950089   -0.5186093205
     H    -0.3578928232   -0.6256805305    1.1061240360
     H     1.8408759369    0.3464744157    1.6447014980
     H     3.5819630710   -1.7267548675   -1.6952184043
     H     1.3715323132   -2.6997739382   -2.2397633322
     H     3.9487181945    1.1652289065    2.2078912911
     H     7.5079396069   -0.5556511146   -1.2575944172
     H     8.3565893392    0.1534789801    0.1199693096
     H     5.8745728688    1.6191023053   -2.3710462030
     H     6.4178646953    3.6738286733   -3.6913000920
     H     9.8103521946    1.8658594637   -0.6598615427
     H    10.5296549557    2.1358216145    3.1754327824
     H    10.1051307485    3.7999371857    3.6695954368
     H    12.3926765745    3.4839610762    3.4939350424
     H    14.7289415598    4.0962510170    2.9834517867
     H    13.6823650700    4.8332128644   -1.1139298246
     H    11.3128731970    4.2093956022   -0.6188358226
