50
-3.1863898636995250e+03 frame 100   xyz file generated by TeraChem
    Cl    -1.4938707374   -0.9011607271    0.0056739528
     C     0.2119452144   -0.6006403093    0.2117595438
     C     1.0669905582   -0.7359056723   -0.8784253659
     C     2.4235574720   -0.4924294652   -0.7080828691
     C     2.9379665706   -0.1155673595    0.5394885867
     C     2.0548004988    0.0106831924    1.6182016628
     C     0.6944769796   -0.2292669333    1.4623203931
     C     4.3722492968    0.1426078293    0.7083906590
     N     5.2227445699   -0.0170047347   -0.3142636597
     N     6.4273444186    0.3099513228    0.1449757452
     C     6.3835762667    0.6714814848    1.4583869623
     C     5.0606789720    0.5788656550    1.8553835446
     C     7.5198450476    1.0920293195    2.2380489345
     N     8.7736933907    1.2092439093    1.9132525831
     N     9.4255243214    1.6662269896    3.0393760432
     C     8.5298090291    1.7825336860    3.9644234959
     O     7.2962617906    1.4365644923    3.5261618040
     C     8.7008443717    2.2437814735    5.3675810111
     O     7.9999065779    3.4617774022    5.6165428558
     C     8.5581523601    4.5802340004    5.0550392742
     C     8.0348782257    5.0962257802    3.8723534123
     C     8.5484665922    6.2606354908    3.3125933471
     C     9.6013659305    6.9065408225    3.9518761639
     C    10.1395261999    6.4205832423    5.1388936279
     C     9.6089703628    5.2572162249    5.6849655066
    Cl    10.2448083539    4.6586088871    7.1841325934
    Cl    10.2599941021    8.3634911663    3.2641773854
     C     7.5806843743    0.1610361054   -0.7335362452
     C     8.2034304836   -1.2113670982   -0.6484629685
     C     9.4829285047   -1.4049178493   -0.1272348577
     C    10.0183038009   -2.6861257786   -0.0771937512
     C     9.2229069597   -3.7206447313   -0.5581152979
     N     8.0110913382   -3.5762347004   -1.0591812965
     C     7.5158656439   -2.3365243771   -1.1029797393
    Cl     9.8489074088   -5.3542929118   -0.5135389173
     H     0.6764186919   -1.0262231540   -1.8485817729
     H     3.0952450746   -0.5939974988   -1.5546632649
     H     2.4243978172    0.2982759209    2.5982475915
     H     0.0172089331   -0.1283532530    2.3043066143
     H     4.6705603320    0.8146089286    2.8347891863
     H     9.7718639252    2.3436824312    5.5661543050
     H     8.2738490820    1.5136753138    6.0592332089
     H     7.2078885700    4.5746743743    3.3997262959
     H     8.1366670711    6.6587802397    2.3914183736
     H    10.9519767847    6.9379126633    5.6370996999
     H     8.3089614634    0.9292533366   -0.4711787331
     H     7.2101756603    0.3579456451   -1.7424024072
     H    10.0537421704   -0.5585876900    0.2433976662
     H    11.0089940104   -2.8767849285    0.3198131117
     H     6.5160222827   -2.2371716597   -1.5213749320
