91
-2.2358051876240561e+03 frame 86   xyz file generated by TeraChem
     C    -0.0005561231   -1.9273264203   -0.0366955561
     N    -0.0046650539   -0.4846379078   -0.0343840464
     C    -1.0269781060    0.3108228509    0.4435665408
     C    -2.2582782423   -0.0677949015    0.9749060654
     C    -3.1506765847    0.9344735022    1.3686849873
     C    -2.7902358152    2.2933749802    1.2268483306
     C    -1.5584527049    2.6652075836    0.7108629348
     C    -0.6577765202    1.6734157587    0.3145683733
     C     0.6676242003    1.6849781620   -0.2475329736
     C     1.0336720690    0.3290860276   -0.4433630354
     C     2.2753506839   -0.0240079063   -0.9685378326
     C     3.1694945532    0.9948936707   -1.3127025228
     C     2.8055118504    2.3462412837   -1.1180209883
     C     1.5700997347    2.6936186889   -0.5940528826
     C     4.4915006390    0.6566425802   -1.8823776243
     C     4.6446174586   -0.4300434005   -2.7554473742
     C     5.8824293403   -0.7546691419   -3.2942823252
     C     7.0174198364    0.0020191643   -2.9744583225
     C     6.8696187674    1.0961545738   -2.1103812417
     C     5.6311286347    1.4156537808   -1.5748492689
     C     8.3411390148   -0.2522242554   -3.5526314640
     N     9.2069470680    0.7098438770   -3.7954381512
     C    10.2991731353    0.0912343113   -4.3605125716
     C    10.0742605291   -1.2962925186   -4.4621820231
     N     8.8087190071   -1.4978810938   -3.9366167781
     C     8.2350133571   -2.7792173502   -3.7001324594
     C     7.9341123387   -3.6046501359   -4.7836521800
     C     7.3999197326   -4.8700831284   -4.5535780762
     C     7.1600378812   -5.3035194401   -3.2510255934
     C     7.4643262503   -4.4726234717   -2.1736490604
     C     8.0117534561   -3.2119255971   -2.3929212829
     C    11.0248366542   -2.1752206317   -4.9788193692
     C    12.2194059918   -1.6137650738   -5.4138834775
     C    12.4569271236   -0.2286819281   -5.3325407953
     C    11.5079284731    0.6371399458   -4.8077037117
     C    -4.4651861000    0.5731401186    1.9412351593
     C    -4.6054179501   -0.5351766596    2.7886191315
     C    -5.8369745335   -0.8779058458    3.3310543474
     C    -6.9783064183   -0.1194573828    3.0387367725
     C    -6.8431092388    0.9950905144    2.1987772478
     C    -5.6107783729    1.3338046808    1.6613648087
     C    -8.2968545270   -0.3906899607    3.6212011397
     N    -9.1680396542    0.5631179698    3.8775678331
     C   -10.2539274686   -0.0680072511    4.4404605181
     C   -10.0197464903   -1.4549571407    4.5270923255
     N    -8.7551469126   -1.6431436833    3.9942537996
     C    -8.1731707988   -2.9189999642    3.7482681345
     C    -7.8611047428   -3.7470658924    4.8265977610
     C    -7.3191472150   -5.0076711766    4.5883735949
     C    -7.0828111184   -5.4336501668    3.2827181966
     C    -7.3984287107   -4.6002362864    2.2105588845
     C    -7.9536745876   -3.3443622593    2.4380207335
     C   -10.9625099561   -2.3451092629    5.0388707475
     C   -12.1589280063   -1.7957237613    5.4841578502
     C   -12.4057670952   -0.4114715161    5.4174185573
     C   -11.4644180599    0.4656506844    4.8976230410
     H    -1.0079661977   -2.2958619241   -0.2458136623
     H     0.3364840266   -2.3342200728    0.9239862946
     H     0.6616177653   -2.2871459347   -0.8268376177
     H    -2.5349887542   -1.1144024312    1.0618331329
     H    -3.4827423988    3.0608447012    1.5605003879
     H    -1.2946162819    3.7163246367    0.6252451967
     H     2.5632522964   -1.0649828609   -1.0813687561
     H     3.4995960545    3.1284933408   -1.4114242313
     H     1.3059617912    3.7396355477   -0.4603148258
     H     3.7734580614   -1.0110726594   -3.0453590983
     H     5.9541099050   -1.5818308332   -3.9929087685
     H     7.7433056935    1.6883501523   -1.8562637164
     H     5.5502962422    2.2514827103   -0.8853332083
     H     8.1106663343   -3.2498069618   -5.7951565158
     H     7.1651757663   -5.5140275553   -5.3964571288
     H     6.7382123356   -6.2891475365   -3.0751089192
     H     7.2855461611   -4.8095646863   -1.1563832503
     H     8.2667169698   -2.5625642456   -1.5604242269
     H    10.8438431019   -3.2440911435   -5.0412085363
     H    12.9882571556   -2.2609523442   -5.8270056036
     H    13.4049596485    0.1667816155   -5.6869673240
     H    11.6894391113    1.7059166328   -4.7369197685
     H    -3.7287519510   -1.1188822563    3.0558540055
     H    -5.8984530706   -1.7208669600    4.0113983638
     H    -7.7219484979    1.5885465146    1.9666039957
     H    -5.5387597220    2.1864584256    0.9917381805
     H    -8.0353404310   -3.3978931028    5.8404681716
     H    -7.0756842542   -5.6536082580    5.4272404446
     H    -6.6549393375   -6.4154953956    3.1003367467
     H    -7.2224176376   -4.9315408630    1.1909611314
     H    -8.2174058267   -2.6932248994    1.6096452734
     H   -10.7743463441   -3.4133418819    5.0899206379
     H   -12.9219424815   -2.4519118549    5.8938979237
     H   -13.3549886023   -0.0257144984    5.7792941564
     H   -11.6530046875    1.5338914321    4.8381205697
