91
-2.2358053027154037e+03 frame 51   xyz file generated by TeraChem
     C     0.1724230358   -2.9433352620    0.1391288323
     N     0.1407105465   -1.5006683955    0.1172554740
     C    -0.8867270244   -0.7196022112    0.6024933340
     C    -2.1002706851   -1.1060875139    1.1737615200
     C    -2.9704427449   -0.1060242226    1.5808688062
     C    -2.6661115252    1.2667028953    1.4398452182
     C    -1.4450079978    1.6334273162    0.8652624683
     C    -0.5519841143    0.6483310631    0.4477690365
     C     0.7632950981    0.6782170188   -0.1493928163
     C     1.1512886348   -0.6734746019   -0.3271796156
     C     2.3907039639   -0.9994095315   -0.8813920932
     C     3.2197678204    0.0419316222   -1.2696184749
     C     2.8548223002    1.3988245589   -1.1198989632
     C     1.6158120496    1.7057858346   -0.5492174974
     C     3.7721774150    2.4673380013   -1.5688707411
     C     4.5938068360    2.2854495464   -2.6917987901
     C     5.4667521159    3.2768451096   -3.1180712092
     C     5.5438797556    4.4978434526   -2.4355929658
     C     4.7125985577    4.6958739963   -1.3247409997
     C     3.8495908399    3.6976218034   -0.8970947701
     C     6.4102584565    5.5983147988   -2.8702133287
     N     6.0730609330    6.8653499935   -2.7514138368
     C     7.1171670087    7.5782666779   -3.2976157489
     C     8.1161693549    6.6997480163   -3.7633553135
     N     7.6429952146    5.4295220765   -3.4780320709
     C     8.4044705503    4.2358127907   -3.6238086368
     C     8.8010339999    3.8252578428   -4.8966060643
     C     9.5685080155    2.6713391613   -5.0362161787
     C     9.9282217894    1.9280609476   -3.9136774528
     C     9.5280534089    2.3456785259   -2.6451414597
     C     8.7737935715    3.5053718823   -2.4941113008
     C     9.2999458020    7.1492727797   -4.3456110605
     C     9.4498151024    8.5256843659   -4.4671250953
     C     8.4574515356    9.4183000015   -4.0201719383
     C     7.2864460089    8.9610117218   -3.4321159758
     C    -3.6242062610    2.2925253942    1.9036472579
     C    -4.4293072333    2.0718409450    3.0315931152
     C    -5.3352250047    3.0271702643    3.4715528227
     C    -5.4634180894    4.2491778720    2.7982839027
     C    -4.6520116864    4.4843293637    1.6799622531
     C    -3.7559084057    3.5221225872    1.2388287589
     C    -6.3592980170    5.3179227928    3.2519158430
     N    -6.0638351688    6.5955594297    3.1357048618
     C    -7.1202282538    7.2722441418    3.7038334562
     C    -8.0833989122    6.3602370203    4.1805727339
     N    -7.5756430345    5.1069854705    3.8793110312
     C    -8.2969686746    3.8891676505    4.0298221795
     C    -8.6591458441    3.4590229529    5.3064083108
     C    -9.3872443568    2.2805922037    5.4518535413
     C    -9.7417029295    1.5325298502    4.3308202426
     C    -9.3759310089    1.9696617180    3.0584800774
     C    -8.6615498355    3.1536559719    2.9018649241
     C    -9.2698973728    6.7694533369    4.7864116283
     C    -9.4595264512    8.1398438866    4.9204086373
     C    -8.5029727781    9.0654688187    4.4626414039
     C    -7.3291976661    8.6482310588    3.8509078910
     H    -0.8271292733   -3.3342125870   -0.0674659312
     H     0.5124052425   -3.3260101746    1.1085138900
     H     0.8454899171   -3.3030102880   -0.6414363009
     H    -2.3657362921   -2.1520932552    1.2948185910
     H    -3.9293518393   -0.3925280157    2.0038985657
     H    -1.1780068453    2.6830107043    0.7706772066
     H     2.7124110492   -2.0299965114   -0.9975388772
     H     4.1966601845   -0.1984226627   -1.6801186877
     H     1.3046557483    2.7418147291   -0.4407248737
     H     4.5284422531    1.3621418891   -3.2606389205
     H     6.0680670251    3.1072897511   -4.0057116148
     H     4.7627493597    5.6397280047   -0.7902753071
     H     3.2436442096    3.8662644713   -0.0109887754
     H     8.5006540128    4.4030231835   -5.7661556582
     H     9.8780555871    2.3502153869   -6.0268549064
     H    10.5219948646    1.0252499550   -4.0267115639
     H     9.8118371691    1.7731137878   -1.7665488470
     H     8.4692043029    3.8474939718   -1.5093353073
     H    10.0673593713    6.4619743977   -4.6889827968
     H    10.3554846587    8.9213949298   -4.9186244237
     H     8.6161466046   10.4868609125   -4.1374711915
     H     6.5208566023    9.6465945062   -3.0797254421
     H    -4.3236421772    1.1482850030    3.5938813849
     H    -5.9222308994    2.8301006585    4.3630191682
     H    -4.7430747495    5.4290289208    1.1524760856
     H    -3.1644048866    3.7178985903    0.3486112079
     H    -8.3627808335    4.0411799609    6.1744025203
     H    -9.6698753047    1.9442973054    6.4454983397
     H   -10.3044395261    0.6105876108    4.4481115835
     H    -9.6558295968    1.3931365114    2.1812352073
     H    -8.3846733222    3.5108102033    1.9142280339
     H   -10.0095405440    6.0566963255    5.1387366472
     H   -10.3686733446    8.5045522017    5.3906152696
     H    -8.6921165354   10.1278559156    4.5904353542
     H    -6.5911036071    9.3591349922    3.4901122288
