45
-1.9237195172285715e+03 frame 56   xyz file generated by TeraChem
     N     1.3929679840    0.9355544732   -0.2220533928
     C     2.3816911853    0.6384457429    0.3150179922
     C     3.5885409266    0.3829190973    1.0316554532
     C     3.8612464852   -0.8350544846    1.5977650774
     C     3.1945567986   -2.0870081655    1.4517732945
     S     3.3524576259   -3.2760281897    2.7239770207
     C     2.3822865151   -4.4525190586    1.8883359015
     C     1.9760242010   -3.9383056116    0.6674599769
     C     2.4317360173   -2.6194608730    0.4196525282
     O     2.2022191681   -1.9835613428   -0.7439402606
     C     1.1403130991   -2.5751067402   -1.5014011035
     C     1.2967950461   -4.0766428434   -1.5449501326
     O     1.2265788205   -4.6289560653   -0.2264219471
     C     2.1279881849   -5.7295041356    2.4992282356
     C     1.3593438621   -6.7098825476    1.9662150345
     C     1.0832986426   -8.0143200385    2.5483686896
     C     1.5307214179   -8.4278990554    3.8136464374
     C     1.2333574696   -9.6876372046    4.3177093431
     C     0.4686871600  -10.5808626612    3.5564872678
     C     0.0101942678  -10.1894809629    2.2921521186
     C     0.3132655394   -8.9306574841    1.8056378930
     O     0.1239397536  -11.8269356655    3.9548310300
     C     0.5475286495  -12.2557262958    5.2374072783
     C     4.4449672675    1.5530361704    1.2014519794
     C     4.1455175051    2.8654226761    0.9089637055
     C     5.2043614975    3.7625414070    1.2078754587
     C     6.3041099335    3.1309125494    1.7159247486
     S     6.0640182685    1.4281521599    1.8276819313
     H     4.7056294729   -0.8494642586    2.2873918527
     H     1.2074155877   -2.1470091370   -2.5029055294
     H     0.1806662035   -2.2969527174   -1.0500208601
     H     2.2574771070   -4.3492405783   -1.9986239951
     H     0.4841051662   -4.5341622332   -2.1118604760
     H     2.6113215969   -5.8874007825    3.4620374622
     H     0.8928373270   -6.5299659670    1.0010670793
     H     2.1208157147   -7.7556056873    4.4305750851
     H     1.5967814508   -9.9650236633    5.3012879174
     H    -0.5836054231  -10.8889766623    1.7108331297
     H    -0.0505458028   -8.6388551511    0.8228334730
     H     0.1598113480  -13.2682197274    5.3574258694
     H     0.1398822307  -11.6129381310    6.0266413128
     H     1.6413652484  -12.2729488547    5.3108405124
     H     3.1885475850    3.1725515987    0.5002207154
     H     5.1501128127    4.8347157420    1.0524613138
     H     7.2472759724    3.5599339714    2.0298951131
