46
-1.1052969940737303e+03 frame 32   xyz file generated by TeraChem
     C     2.8640614890    1.9022860786    0.6986752801
     C     2.3095259142    1.1477687127   -0.4970122417
     C     0.8040839769    0.9378984996   -0.3802225781
     N     0.3424076599    0.1517997871   -1.5005568278
     C    -0.9473729260    0.0578522261   -1.8773524371
     N    -1.8493662992    0.8239488847   -1.2365926164
     C    -3.1345233977    0.7346044386   -1.5998032722
     N    -3.6833444877   -0.0443346261   -2.5219954844
     C    -2.7664585877   -0.7985201368   -3.1497289269
     C    -1.3788193804   -0.8001938140   -2.9256254824
     C    -0.7970152166   -1.7532831656   -3.8306614614
     C     0.6251866213   -2.1360947901   -3.9266243949
     C     1.0229397069   -3.4695331982   -3.7503610075
     C     2.3643957524   -3.8290016874   -3.8389405748
     C     3.3360597677   -2.8619704829   -4.0948853078
     C     2.9554978476   -1.5326429021   -4.2663480912
     C     1.6112359325   -1.1733122507   -4.1889373106
     C    -1.8510778193   -2.2857085760   -4.5606777636
     N    -3.0279595487   -1.7068551959   -4.1242957604
     C    -1.8778795961   -3.2742291433   -5.6426368032
     C    -2.9517483013   -4.1707336202   -5.7583788619
     C    -2.9958743965   -5.0946583671   -6.7979563054
     C    -1.9672158909   -5.1443032898   -7.7368501380
     C    -0.8960943496   -4.2571906248   -7.6316214360
     C    -0.8516549686   -3.3276124676   -6.5983661889
     O     2.9711551326   -0.0980398012   -0.6908770447
     H     3.9444082009    2.0381013998    0.5910773321
     H     2.6751592729    1.3472166954    1.6261562562
     H     2.3968649327    2.8887090055    0.7902237863
     H     2.5094189099    1.7107597807   -1.4164972584
     H     0.5765744851    0.4378466920    0.5755191579
     H     0.2874968465    1.9014899852   -0.3737132868
     H     1.0082141688   -0.5170904307   -1.8670510776
     H    -3.8179045887    1.3843827446   -1.0536882117
     H     0.2704327588   -4.2242426559   -3.5375762055
     H     2.6529808099   -4.8675381395   -3.6981778661
     H     4.3840054297   -3.1427854822   -4.1582208854
     H     3.7044788897   -0.7713881710   -4.4685737800
     H     1.3181572014   -0.1372653716   -4.3416906291
     H    -3.9359818878   -1.8449298784   -4.5465102392
     H    -3.7489362496   -4.1571152642   -5.0190617543
     H    -3.8340048241   -5.7828976575   -6.8688560923
     H    -2.0010682954   -5.8672824133   -8.5474219088
     H    -0.0947759445   -4.2811066967   -8.3655191926
     H    -0.0267185794   -2.6246717615   -6.5361675490
     H     2.8603255734   -0.6120513859    0.1249755736
