80
-2.1158631375215518e+03 frame 54   xyz file generated by TeraChem
     O     2.8890867680   -1.6402990954   -0.5970610187
     N     2.3814669584   -0.8342451438    0.1701376470
     O     1.2549284259   -0.3778740951    0.0330007604
     C     3.1642225318   -0.3920712353    1.3154571166
     C     4.4614532813   -0.8702228607    1.4686856254
     C     5.2007480486   -0.4475965326    2.5641158692
     C     4.6559287877    0.4434866622    3.5004937691
     C     3.3448888933    0.9060367189    3.3132863904
     C     2.5922016741    0.4936031816    2.2229785135
     C     5.4528504699    0.8880549457    4.6753700900
     C     5.7454503643    2.2612014584    4.7996925215
     C     5.4011178747    3.2377685744    3.7784362350
     C     5.8424171276    4.4321599672    4.2350638701
     C     6.4536176584    4.1723193347    5.5277725015
     N     6.3937563602    2.8471721020    5.8425526949
     C     7.0498713368    5.1844333908    6.3028302522
     C     7.7447345791    4.9781011738    7.5030157309
     C     8.3752352896    5.9770615053    8.3084990479
     C     8.9730511117    5.3514330835    9.3664639738
     C     8.7094718465    3.9500426465    9.2588785916
     C     9.1491014180    2.9467074835   10.1329840199
     C     8.8774916914    1.5722440095    9.9938861702
     N     8.1489321366    0.9949906213    8.9977004451
     C     8.1247115911   -0.3334192861    9.2962131735
     C     7.4767774980   -1.3384468603    8.5508228296
     C     6.7708214658   -1.1301672204    7.3593370413
     N     6.6173013146    0.0581681830    6.6941169836
     C     5.8425547927   -0.1108865512    5.5783401475
     C     5.4784665200   -1.4941662774    5.5374553524
     C     6.0413523666   -2.1116793107    6.6183838723
     C     7.5195712429   -2.7391953506    9.0608396449
     C     6.8604339289   -3.0845999062   10.2472392056
     C     6.8932855460   -4.3936617899   10.7210601859
     C     7.5872649248   -5.3761462018   10.0168453764
     C     8.2474072463   -5.0425654355    8.8358805892
     C     8.2126762993   -3.7338797016    8.3600944323
     C     8.8710674322   -0.6124947303   10.5119982977
     C     9.3328937196    0.5799727115   10.9535308269
     C     9.9743194430    3.3894217728   11.2940817894
     C     9.4090574225    4.1473046709   12.3269623298
     C    10.1836927516    4.5599283856   13.4085217656
     C    11.5343172560    4.2224186555   13.4719844875
     C    12.1065162288    3.4691352855   12.4482490213
     C    11.3323535787    3.0553958573   11.3672516899
     N     7.9646220324    3.7769199314    8.1223219502
     C     6.9502414202    6.5916381417    5.8193324665
     C     8.0869401309    7.2870606415    5.3885766468
     C     7.9844854316    8.6000199432    4.9349826959
     C     6.7453530548    9.2372340439    4.9084258521
     C     5.6081659394    8.5541116285    5.3359029415
     C     5.7095186104    7.2406071739    5.7868815812
     H     4.8792357831   -1.5526720202    0.7378607755
     H     6.2192675136   -0.8018401424    2.6914689425
     H     2.9095516956    1.5873332819    4.0380031203
     H     1.5761833999    0.8413290911    2.0762676558
     H     4.9150079478    3.0297359685    2.8349082159
     H     5.7847605393    5.3939086484    3.7440863914
     H     8.3715245944    7.0353132248    8.0900828341
     H     9.5483699012    5.8087944715   10.1586553575
     H     6.9949962356    0.9460065701    7.0093160878
     H     4.8470940442   -1.9449023261    4.7849914520
     H     5.9537069197   -3.1519323234    6.8975451527
     H     6.3138164564   -2.3209290450   10.7945146308
     H     6.3718536701   -4.6462734148   11.6405960616
     H     7.6134364913   -6.3975351819   10.3872368589
     H     8.7944774965   -5.8016439092    8.2828800185
     H     8.7342949025   -3.4755018015    7.4419422145
     H     9.0151337989   -1.5870867568   10.9578634832
     H     9.9210775818    0.7775174051   11.8392464026
     H     8.3538856402    4.4053540590   12.2837098368
     H     9.7287545310    5.1433966989   14.2047073829
     H    12.1387206370    4.5445761817   14.3157524844
     H    13.1600442344    3.2049312871   12.4881193019
     H    11.7814980267    2.4727325847   10.5669728267
     H     7.6206666269    2.8835738298    7.7847230090
     H     9.0534623617    6.7896467229    5.3998052779
     H     8.8752461439    9.1239286116    4.5983405294
     H     6.6660979506   10.2619069744    4.5551213309
     H     4.6385786536    9.0449587978    5.3218968314
     H     4.8222355785    6.7110036717    6.1242650450
