57
-1.1309165416521573e+03 frame 72   xyz file generated by TeraChem
     C     0.9671656144   -0.6116959599   -0.1961469791
     C     2.3091738316   -0.8003552276    0.4598194463
     C     2.7443037209    0.1244344926    1.4144623398
     C     3.9646533182   -0.0040325152    2.0742220140
     C     4.8349217115   -1.0645645566    1.7962280281
     C     4.4227442172   -1.9807448059    0.8284538858
     C     3.1739981864   -1.8751797142    0.1795413025
     C     3.0338070453   -3.0337145700   -0.7240781135
     C     4.1496444813   -3.8165067302   -0.6531000891
     C     5.1365940407   -3.2152593532    0.3307713182
     C     6.5018774494   -2.9532685792   -0.3206243893
    Fe     4.6065001534   -5.1929298574   -1.8148793800
     C     4.3221921646   -6.9046621461   -1.1568065584
     C     3.6023017073   -7.7674932227   -1.9337341126
     C     2.8274219231   -7.3723587043   -3.1582611376
     C     3.6980006589   -9.1347497276   -1.3875414391
     C     4.4965308386   -9.0765882575   -0.2256136860
     C     4.8979528725   -7.6430802876    0.0321881497
     C     4.3483964375   -7.0853293720    1.3523251741
     C     4.8266099981  -10.2187819430    0.5037585468
     C     5.7058906969  -10.1738537003    1.7237081367
     C     4.3075497610  -11.4343661618    0.0433234245
     C     3.4991974872  -11.4956909463   -1.0895161216
     C     3.1763389498  -10.3606868833   -1.8402569004
     C     2.3237478569  -10.5089964554   -3.0727575519
     C     1.8383816802   -3.3287384337   -1.5789175926
     C     6.1423430009   -1.1940057608    2.5289590988
     H     0.5054836166    0.3215120571    0.1416982689
     H     0.2745708374   -1.4271389668    0.0422321958
     H     1.0455949444   -0.5672036452   -1.2878650013
     H     2.0981330279    0.9660264379    1.6574370404
     H     4.2467649295    0.7309790585    2.8256952867
     H     5.2955657748   -3.9077995761    1.1733733240
     H     6.4011452162   -2.2598825464   -1.1634078256
     H     6.9378353784   -3.8899164128   -0.6978679251
     H     7.2213014335   -2.5317616395    0.3878174404
     H     2.9057396594   -6.2898677144   -3.3497068147
     H     1.7591482436   -7.5986409486   -3.0603010002
     H     3.1856367196   -7.8756455011   -4.0633514294
     H     5.9963474171   -7.5522322072    0.0529823613
     H     3.2599299371   -7.2066480841    1.3903005490
     H     4.5709028590   -6.0168312935    1.4275506337
     H     4.7820710045   -7.5916260382    2.2200075168
     H     6.5254001681   -9.4564418553    1.6032818723
     H     6.1408363310  -11.1577922481    1.9265375389
     H     5.1449442062   -9.8737917461    2.6178048647
     H     4.5466369720  -12.3513003611    0.5788235986
     H     3.1161057705  -12.4616616419   -1.4136921811
     H     2.0278641562  -11.5544396852   -3.2051026061
     H     2.8559717801  -10.2000710568   -3.9799030542
     H     1.4075284998   -9.9106687627   -3.0181278149
     H     1.6610649374   -2.5552803728   -2.3356252331
     H     0.9208287565   -3.4115443670   -0.9843723400
     H     1.9685048904   -4.2812656842   -2.1085839121
     H     6.1254414132   -0.6195727609    3.4608019061
     H     6.9832143194   -0.8203263361    1.9310713028
     H     6.3632601485   -2.2383009769    2.7774191047
