122
-3.2316529923528524e+03 frame 83   xyz file generated by TeraChem
     C     5.6190159861   -3.9223823808   -7.5067067100
    Si     4.1303180282   -3.1138515688   -6.6806220039
     C     4.7417952498   -1.8977188953   -5.3463958866
     C     5.0478711747   -0.5946118691   -5.7759143475
     C     5.5687686396    0.3686291077   -4.9157130894
     C     5.7937141819    0.0472887532   -3.5803599785
     C     5.4947841560   -1.2332527147   -3.1250078886
     C     4.9760893142   -2.2065248317   -3.9877292931
     C     4.6795248903   -3.5524965709   -3.4127744351
     C     3.4300125393   -3.7982450038   -2.8111666558
     C     2.4236490378   -2.7859383585   -2.7389920589
     C     1.2085102634   -3.0310689745   -2.1613478340
     C     0.9201711661   -4.3109322602   -1.6170962878
     C     1.8532498507   -5.3093324426   -1.6706889059
     C     3.1351771791   -5.0978146998   -2.2665471100
     C     4.1033336026   -6.1201790627   -2.3185990710
     C     5.3546545400   -5.8736643022   -2.9149920953
     C     5.6515054703   -4.5703755265   -3.4550370352
     C     6.9427702061   -4.3512093455   -4.0291014206
     C     7.8726184364   -5.3520823530   -4.0902522977
     C     7.5715492249   -6.6429829474   -3.5793985513
     C     6.3540079777   -6.8918559641   -3.0087669755
     C     3.7794806212   -7.4726271990   -1.7735069397
     C     3.1009623469   -8.3580751642   -2.6201436434
     C     2.7452218850   -9.6339099481   -2.1936814388
     C     3.0621781514  -10.0347856896   -0.8998960956
     C     3.7315616383   -9.1554596850   -0.0522103762
     C     4.1123236964   -7.8633064551   -0.4571623833
    Si     5.0853100766   -6.8228180326    0.8060484441
     C     6.9201149353   -7.2600580522    0.6531311840
     C     7.9224832731   -6.2798566878    0.6724394649
     C     9.2729532450   -6.6185086862    0.6137028386
     C     9.6723798007   -7.9565808163    0.5227235608
     C     8.6789812348   -8.9451067919    0.5085522643
     C     7.3335927272   -8.6001678374    0.5715176116
     C    11.1112184956   -8.3149767023    0.4987983494
     C    11.9432036097   -7.8508736517    1.5201400609
     C    13.3019818054   -8.1886056067    1.5801880720
     C    13.8835190435   -8.9999287055    0.6165818982
     C    13.0649010330   -9.4506433969   -0.4190974431
     C    11.6854321181   -9.1220867045   -0.5054504025
     C    11.2061419977   -9.7196797115   -1.7389274713
     C     9.9839792328   -9.7327627444   -2.4252761656
     C     9.8898749298  -10.4016840636   -3.6392919735
     C    10.9997649648  -11.0664231342   -4.1856362437
     C    12.2253368685  -11.0703977637   -3.5338839258
     C    12.3151208000  -10.3903456203   -2.3178004212
     N    13.4080425757  -10.2248357550   -1.5017317274
     C     4.8620901618   -4.9592580783    0.6629845421
     C     4.5057976549   -7.3334899891    2.5297608470
     C     3.1910796077   -2.0937395153   -7.9682270817
     C     3.6604692462   -1.9299273001   -9.2790244923
     C     2.9346071161   -1.2148987568  -10.2289043420
     C     1.7065846394   -0.6286896952   -9.9018278318
     C     1.2266142840   -0.7858634738   -8.5939055939
     C     1.9560943027   -1.5027013314   -7.6514055966
     C     0.9089535148    0.0631909941  -10.9429592975
     C     0.6546657478   -0.6088861063  -12.1416470929
     C    -0.1299805588   -0.0469563275  -13.1569012024
     C    -0.6900382351    1.2138568651  -13.0144344826
     C    -0.4251383210    1.9009815026  -11.8295685967
     C     0.3715500181    1.3581743381  -10.7853819114
     C     0.4592545047    2.3918595282   -9.7680617902
     C     1.1192790601    2.5219494781   -8.5378969539
     C     0.9933539145    3.7029230946   -7.8178532563
     C     0.2163833649    4.7669110892   -8.3037641128
     C    -0.4423785816    4.6753260492   -9.5223424818
     C    -0.3074542136    3.4881221460  -10.2435077971
     N    -0.8330131047    3.1629281689  -11.4706040349
     C     2.9494427559   -4.4503911630   -6.0725162366
     H     6.3036449877   -3.1780894434   -7.9298311309
     H     5.3009213887   -4.5906238147   -8.3158932391
     H     6.1813452671   -4.5158282780   -6.7772236621
     H     4.8696985609   -0.3231595686   -6.8146859874
     H     5.7935500525    1.3653527204   -5.2867636671
     H     6.1971383698    0.7877802203   -2.8943870983
     H     5.6634519642   -1.4914091116   -2.0819766026
     H     2.6426622802   -1.8071404177   -3.1538497485
     H     0.4590474030   -2.2453730119   -2.1160655553
     H    -0.0477055106   -4.4950590836   -1.1584112827
     H     1.6289167776   -6.2858278228   -1.2531917107
     H     7.1780831501   -3.3652007807   -4.4179924724
     H     8.8482263505   -5.1618438822   -4.5296229802
     H     8.3160576663   -7.4323781314   -3.6406745962
     H     6.1291323585   -7.8769246676   -2.6121712129
     H     2.8509071572   -8.0348379612   -3.6280638125
     H     2.2213875329  -10.3063001305   -2.8681922968
     H     2.7871202597  -11.0257535405   -0.5478835756
     H     3.9589759279   -9.4902283803    0.9573347719
     H     7.6537022684   -5.2270533162    0.7308805525
     H    10.0293778595   -5.8371784474    0.6238181200
     H     8.9667017089   -9.9925212718    0.4571819595
     H     6.5929056124   -9.3983377318    0.5567646270
     H    11.5119572934   -7.2322171364    2.3027126599
     H    13.9075306100   -7.8141227649    2.4012176529
     H    14.9355288439   -9.2679930486    0.6571930334
     H     9.1157564811   -9.2261709695   -2.0166981436
     H     8.9428193592  -10.4126846384   -4.1719698134
     H    10.9001206637  -11.5852972012   -5.1354845739
     H    13.0891860466  -11.5778770591   -3.9544709118
     H    14.3382374585  -10.5625235859   -1.6996973829
     H     5.2933376703   -4.5391527664   -0.2507080612
     H     5.3445161416   -4.4772540702    1.5224955489
     H     3.7991602087   -4.6954540640    0.6873468402
     H     4.7397473871   -8.3776572929    2.7641930827
     H     3.4239964444   -7.1936482942    2.6408248662
     H     5.0056145218   -6.7084136687    3.2793785006
     H     4.6116994250   -2.3680328134   -9.5736756017
     H     3.3269409958   -1.1014256614  -11.2368606404
     H     0.2636145313   -0.3601838775   -8.3219259990
     H     1.5436477306   -1.6102497272   -6.6490738092
     H     1.0562573389   -1.6102090713  -12.2714166505
     H    -0.3100660382   -0.6143781308  -14.0661096883
     H    -1.3041340032    1.6566366170  -13.7935703614
     H     1.7268739072    1.7115754386   -8.1487527345
     H     1.5042133233    3.8051803045   -6.8643166420
     H     0.1309124522    5.6795801199   -7.7197994982
     H    -1.0379524595    5.4984442162   -9.9076898062
     H    -1.3793215961    3.7820061711  -12.0509763599
     H     3.4477483722   -5.1774531684   -5.4230537130
     H     2.5586213594   -4.9858850144   -6.9466565689
     H     2.0983972505   -4.0341643430   -5.5233118152
