130
-3.3862716439360884e+03 frame 130   xyz file generated by TeraChem
     C     9.8909452075    5.3539953420   -2.3086461040
    Si     8.5970581875    4.4295096611   -3.3205005941
     C     7.0919994961    4.0136547307   -2.2259105630
     C     6.0648250415    4.9732615668   -2.1894324614
     C     4.9348893137    4.8247190919   -1.3891941916
     C     4.8010704274    3.6904019159   -0.5949807423
     C     5.7989390957    2.7201997670   -0.6136475495
     C     6.9381179313    2.8668997257   -1.4147046237
     C     7.9534035078    1.7716208148   -1.3727559422
     C     7.8021170070    0.6408244307   -2.1986062041
     C     6.7008130331    0.5149022968   -3.1010839440
     C     6.5624840308   -0.5814729872   -3.9065716330
     C     7.5209724967   -1.6288488702   -3.8612141266
     C     8.5913848631   -1.5474889014   -3.0140556104
     C     8.7761242683   -0.4193447466   -2.1554092223
     C     9.8741250619   -0.3328831705   -1.2781815316
     C    10.0194184295    0.7907939492   -0.4431873051
     C     9.0408796568    1.8483411716   -0.4812356959
     C     9.1999062203    2.9522801726    0.4134759261
     C    10.2563603975    3.0206380056    1.2793271650
     C    11.2297581711    1.9860827651    1.3046218871
     C    11.1138426211    0.9096048215    0.4692425521
     C    10.8910282804   -1.4265101736   -1.2517522889
     C    11.9554672902   -1.3386743244   -2.1590462225
     C    12.9419196876   -2.3181686146   -2.2100557640
     C    12.8707640843   -3.4073328580   -1.3460509372
     C    11.8143932215   -3.4988409122   -0.4451561478
     C    10.8028661743   -2.5236907171   -0.3696295026
    Si     9.4976654955   -2.8364633497    0.9834255957
     C    10.4335355290   -2.7393541918    2.6071178448
     C    10.1717348268   -1.8595341607    3.5915764985
     C    10.8761194278   -1.7162499166    4.8726617294
     C    11.8907806191   -2.5894649378    5.2952575369
     C    12.5291121616   -2.4059829242    6.5130837956
     C    12.1765031583   -1.3486886736    7.3658863659
     C    11.1680877338   -0.4725521679    6.9453794508
     C    10.5302117323   -0.6566877878    5.7247433309
     C    12.9033574484   -1.1381595644    8.6397949676
     C    14.2994654346   -1.0820395083    8.6149682290
     C    15.0532982707   -0.8343894880    9.7693969279
     C    14.4394781979   -0.6355942017   10.9973577426
     C    13.0471908423   -0.7113752822   11.0363232397
     C    12.2575440256   -0.9689443484    9.8833795378
     C    10.8818446285   -1.0369185187   10.3462492554
     C     9.6443826494   -1.3112069229    9.7469921773
     C     8.4950193240   -1.3179506816   10.5264895007
     C     8.5546641181   -1.0554608586   11.9047088634
     C     9.7643122627   -0.7909564111   12.5320496582
     C    10.9165578788   -0.7915936524   11.7443087955
     N    12.2204421587   -0.5886567709   12.1268011316
     C     8.0172084411   -1.6791923899    1.0343671201
     C     8.8576048498   -4.5973581785    0.7462556412
     C     7.9515430958    5.5520289619   -4.6800741220
     C     8.4280929963    6.7820913538   -4.9478988239
     C     8.0085700551    7.6876782102   -6.0260561717
     C     6.8899486884    7.4474143330   -6.8390050797
     C     6.5443633462    8.3265818255   -7.8551627481
     C     7.3062724809    9.4771415621   -8.1085990542
     C     8.4145553621    9.7279074079   -7.2901384524
     C     8.7538115426    8.8518247382   -6.2663893128
     C     6.8992617852   10.4307498824   -9.1674493739
     C     5.5942928397   10.9299154185   -9.1612119753
     C     5.1567190497   11.8733277052  -10.1002513587
     C     6.0072284582   12.3519060776  -11.0861264730
     C     7.3057839104   11.8429506584  -11.1135248281
     C     7.7742729273   10.8812603307  -10.1784100315
     C     9.1338209146   10.5615779136  -10.5773677879
     C    10.1165407241    9.6690846094  -10.1263371434
     C    11.3363540681    9.6067378122  -10.7872528761
     C    11.5986437797   10.4240384923  -11.8986545625
     C    10.6446056382   11.3119077203  -12.3769764642
     C     9.4181049647   11.3648377311  -11.7127698321
     N     8.3133487457   12.1287620681  -12.0030927846
     C     9.3916911518    2.9346954861   -4.1500977192
     H     9.4660262903    6.2420550725   -1.8268571928
     H    10.7235517170    5.6774569906   -2.9448098786
     H    10.2966328039    4.7083060001   -1.5221656704
     H     6.1521824364    5.8640691853   -2.8087042657
     H     4.1634279525    5.5906422378   -1.3894341057
     H     3.9256480824    3.5570965092    0.0355117918
     H     5.7005309552    1.8294222604    0.0025665839
     H     5.9671691687    1.3140038549   -3.1360016507
     H     5.7165078017   -0.6554501518   -4.5847207925
     H     7.4014750262   -2.4959191415   -4.5053737125
     H     9.3241855783   -2.3475924906   -2.9831465332
     H     8.4545107912    3.7412208652    0.3974916395
     H    10.3529242531    3.8669897291    1.9541190372
     H    12.0674707517    2.0523323604    1.9936489232
     H    11.8584336859    0.1200336719    0.4905816455
     H    12.0021887977   -0.4867359176   -2.8334644676
     H    13.7593592960   -2.2298358014   -2.9210466436
     H    13.6324090273   -4.1824522590   -1.3729772642
     H    11.7786842657   -4.3598886333    0.2206004525
     H    11.2643597587   -3.4372652622    2.7447003780
     H     9.3544338043   -1.1481332438    3.4558800164
     H    12.1784258955   -3.4294001414    4.6686788074
     H    13.3062049665   -3.0998073393    6.8238193742
     H    10.8917112978    0.3685463984    7.5758318959
     H     9.7529139209    0.0388057526    5.4152584835
     H    14.8083208486   -1.2039263337    7.6624716855
     H    16.1366506451   -0.7870362035    9.6977157961
     H    15.0153193843   -0.4376566420   11.8970275680
     H     9.5794044739   -1.5208825036    8.6844885657
     H     7.5353420702   -1.5304663905   10.0633647354
     H     7.6404353238   -1.0637048763   12.4924018633
     H     9.8181053879   -0.5968079794   13.5998172257
     H    12.5323350042   -0.4391769758   13.0747976992
     H     8.2890900970   -0.6387355352    1.2342772165
     H     7.3443761425   -2.0155760017    1.8331545415
     H     7.4597632204   -1.7092421987    0.0926266202
     H     9.6622765100   -5.3403618792    0.7691498542
     H     8.3375523924   -4.6925902960   -0.2145180929
     H     8.1452564380   -4.8487326385    1.5410579175
     H     7.1603432333    5.1549169477   -5.3223884079
     H     9.2311648369    7.1803934745   -4.3242103381
     H     6.2793876084    6.5641166051   -6.6721098242
     H     5.6760165017    8.1192636588   -8.4754123147
     H     9.0052057384   10.6263956111   -7.4491213810
     H     9.6142030468    9.0693110380   -5.6369400806
     H     4.9119646509   10.5956617653   -8.3841528646
     H     4.1360147597   12.2426484274  -10.0472980481
     H     5.6780336464   13.0869753906  -11.8151820939
     H     9.9295761415    9.0287450090   -9.2708109091
     H    12.0991138260    8.9154605923  -10.4394197133
     H    12.5625278236   10.3588473487  -12.3966455747
     H    10.8384938047   11.9400798943  -13.2421381050
     H     8.2313394921   12.7562744642  -12.7892275059
     H     9.8858500783    2.2779114087   -3.4264778634
     H    10.1486110641    3.2879274938   -4.8611685806
     H     8.6593265044    2.3383235775   -4.7045317152
