134
-3.3885840066107630e+03 frame 176   xyz file generated by TeraChem
     C     5.8592159567   -0.0654759958    1.6188363432
    Si     6.6713585863    0.3593938763    3.2628628542
     C     5.6214784170   -0.0429251063    4.7992579197
     C     5.7750706627    0.8019660083    5.9130789119
     C     5.0529945486    0.6230574407    7.0909473225
     C     4.1332336923   -0.4165899320    7.1810122052
     C     3.9546621906   -1.2657716868    6.0935821968
     C     4.6877523429   -1.0979501106    4.9130549219
     C     4.3933342576   -2.0356201320    3.7914645664
     C     5.2378485529   -3.1574091764    3.4983162059
     C     6.3704696022   -3.4576085042    4.2919248059
     C     7.1953840824   -4.5180113233    3.9863556492
     C     6.9232904742   -5.3188117265    2.8602672462
     C     5.8226075224   -5.0572331098    2.0744819566
     C     4.9371651166   -3.9921220983    2.3766253006
     C     3.7628916532   -3.7545429955    1.5881774544
     C     2.9091084801   -2.7171803127    1.9269467409
     C     3.2633963763   -1.8470022553    3.0436002472
     C     2.2756098541   -0.7460251006    2.9600171908
     C     0.9996078758   -1.2153646385    2.9958003207
     C     0.6256177574   -1.6583181036    1.6262864435
     C     1.6453418183   -2.4596958740    1.1836546703
     C    -0.7215033765   -1.4714798723    0.9710632382
     C    -0.9249862621    0.0346707474    0.7367325466
     C    -0.8323999477   -2.2126791088   -0.3606204770
     C    -1.8059956629   -1.9760074636    1.9354203202
     C     3.4970995226   -4.5887513348    0.3766053472
     C     3.9271433095   -4.0638593152   -0.8497179106
     C     3.7083900081   -4.7417989066   -2.0442891466
     C     3.0469030840   -5.9654714882   -2.0225660321
     C     2.6210145377   -6.4926124312   -0.8066933691
     C     2.8326995086   -5.8342731649    0.4193838984
    Si     2.2689036992   -6.8092848856    1.9594206744
     C     1.8629028961   -5.7964782447    3.5035518445
     C     2.7800749318   -5.6717644067    4.5587184773
     C     2.4404476684   -5.0378096718    5.7502539128
     C     1.1603107060   -4.5013335919    5.9370863129
     C     0.2396053878   -4.6085186052    4.8871480701
     C     0.5849069987   -5.2498596186    3.6999375787
     C     0.8019237687   -3.7930545491    7.1906917293
     C     0.3417373172   -2.4759276912    7.1166405100
     C     0.0342459324   -1.7318586516    8.2639880655
     C     0.1702803248   -2.2788278230    9.5315455099
     C     0.6095477877   -3.6004310446    9.6141940617
     C     0.9244413584   -4.3788409365    8.4679348334
     C     1.2819359078   -5.6970490878    8.9624467854
     C     1.6390568169   -6.9160743309    8.3693910510
     C     1.9007381280   -8.0155810628    9.1765473544
     C     1.8120762514   -7.9234721598   10.5749665503
     C     1.4520704936   -6.7341684202   11.1939471167
     C     1.1850822326   -5.6342087543   10.3772953220
     N     0.7912915729   -4.3682661649   10.7390867891
     C     0.7008214122   -7.7550490213    1.4968438562
     C     3.6223352152   -8.0493864584    2.3906638282
     C     8.3420597226   -0.5204326684    3.3874498469
     C     8.9116235855   -1.1849657323    2.2921949710
     C    10.1669869447   -1.7824991821    2.3765072892
     C    10.9010847637   -1.7436387334    3.5675397581
     C    10.3429114906   -1.0794629871    4.6680719344
     C     9.0892506199   -0.4838687201    4.5760595619
     C    12.2605514086   -2.3329570803    3.6277817999
     C    13.2020829535   -1.9449954702    2.6710122038
     C    14.5172033330   -2.4276898423    2.6849718820
     C    14.9417722869   -3.3236072913    3.6550325792
     C    14.0033896498   -3.7319420104    4.6030751097
     C    12.6628044285   -3.2606674188    4.6114303936
     C    11.9986910201   -3.9581826207    5.6989407381
     C    10.6925177791   -3.9904909524    6.2075774968
     C    10.3969509003   -4.8247177150    7.2784098516
     C    11.3873984505   -5.6331970199    7.8592077356
     C    12.6890781547   -5.6296030669    7.3771847131
     C    12.9780514398   -4.7939908180    6.2969472250
     N    14.1681775687   -4.6292749395    5.6305266057
     C     6.9970915371    2.2200671432    3.2660813078
     H     5.7613108833   -1.1414476395    1.4467052063
     H     6.4622185724    0.3569646717    0.8052519235
     H     4.8612939469    0.3825573545    1.5551843034
     H     6.4716005633    1.6355505171    5.8610584459
     H     5.2027450488    1.3000926055    7.9281683201
     H     3.5499458917   -0.5648633339    8.0864004626
     H     3.2322184311   -2.0761186933    6.1519740337
     H     6.5837965253   -2.8290539108    5.1511391724
     H     8.0595161156   -4.7323952119    4.6095705845
     H     7.5830664745   -6.1453880244    2.6102397803
     H     5.6149768100   -5.6769109340    1.2076346347
     H     2.4951805037   -0.0892863188    2.1092171549
     H     0.7310214318   -1.9228054161    3.7871575321
     H     1.5062732896   -3.0514118845    0.2820523911
     H    -0.1860543726    0.4252563876    0.0275760139
     H    -0.8229513800    0.5890582756    1.6766769152
     H    -1.9257147234    0.2229291975    0.3297918561
     H    -0.0610743404   -1.8822621706   -1.0658619526
     H    -1.8103105952   -2.0172207692   -0.8153520401
     H    -0.7347791911   -3.2964811244   -0.2281329590
     H    -1.7463047523   -1.4605345689    2.9008685088
     H    -1.7039544678   -3.0529403783    2.1138656789
     H    -2.8003441733   -1.7905520268    1.5122712476
     H     4.4365356944   -3.1028250605   -0.8580791927
     H     4.0499981751   -4.3135280390   -2.9831357842
     H     2.8611402744   -6.5086582081   -2.9456928764
     H     2.1068589843   -7.4510035894   -0.8180587545
     H     3.7852584198   -6.0738588632    4.4555935991
     H     3.1766063973   -4.9552121794    6.5464179789
     H    -0.7620380011   -4.2039838748    5.0138686761
     H    -0.1675707955   -5.3314870129    2.9177887153
     H     0.2475006124   -2.0098092876    6.1396754863
     H    -0.3092197658   -0.7064512831    8.1565434923
     H    -0.0632025395   -1.7084467214   10.4261726382
     H     1.7107836482   -7.0050402050    7.2904100704
     H     2.1777666314   -8.9615730913    8.7193713972
     H     2.0249060511   -8.7977069224   11.1847219192
     H     1.3735180251   -6.6594654478   12.2751204616
     H     0.6103151468   -4.0630594855   11.6837883903
     H    -0.0815950637   -7.0929146851    1.1087350093
     H     0.3042933169   -8.2622486897    2.3841440580
     H     0.8964633445   -8.5211201114    0.7384588883
     H     4.5499998766   -7.5560629153    2.7000779531
     H     3.8508317285   -8.6722444390    1.5178232270
     H     3.2990083555   -8.7099243366    3.2039898248
     H     8.3685789153   -1.2481059847    1.3516008921
     H    10.5817928546   -2.2978389431    1.5134227327
     H    10.9033527485   -1.0183192741    5.5979067055
     H     8.6890527326    0.0220384558    5.4534471803
     H    12.9061765969   -1.2258269729    1.9119498723
     H    15.2172530150   -2.0873222027    1.9265794834
     H    15.9599441554   -3.7018480281    3.6752486868
     H     9.9142983765   -3.3711862082    5.7735219688
     H     9.3850325469   -4.8500184670    7.6734844449
     H    11.1319587436   -6.2750454371    8.6983255404
     H    13.4585778542   -6.2577343996    7.8176268212
     H    15.0180926493   -5.1377965660    5.8239475940
     H     6.0590148162    2.7878772649    3.2740446269
     H     7.5460209135    2.4908633734    2.3561441072
     H     7.5986869128    2.5449770469    4.1219027344
