142
-3.5433376730914442e+03 frame 103   xyz file generated by TeraChem
     C     4.2842761351   -0.2169661184   -0.6192560406
    Si     4.7655188354    1.3005245493   -1.6233852776
     C     5.6304091718    2.7021655492   -0.6651631660
     C     5.5524005656    3.9820222421   -1.2439716716
     C     6.1769407641    5.0927964140   -0.6838459400
     C     6.9020547536    4.9491098602    0.4955088032
     C     6.9967483625    3.6953960183    1.0915856484
     C     6.3782882022    2.5727413232    0.5257498900
     C     6.5500680923    1.2699204807    1.2371823502
     C     7.5911177352    0.3953997227    0.8672695670
     C     8.4947291968    0.7138617090   -0.1932106506
     C     9.5070421469   -0.1361063311   -0.5463056114
     C     9.6812709016   -1.3660565459    0.1421210279
     C     8.8375015205   -1.7104363414    1.1628288904
     C     7.7687682986   -0.8521417823    1.5649770609
     C     6.9067672394   -1.1926644808    2.6271729131
     C     5.8675255556   -0.3178445975    2.9916845779
     C     5.6931322585    0.9311347005    2.3016997785
     C     4.6225613266    1.7917304118    2.6993861789
     C     3.7513887450    1.4727306306    3.7098110487
     C     3.9347037447    0.2201885573    4.3767614047
     C     4.9440737873   -0.6334701718    4.0350446290
     C     2.6021639647    2.3826487698    4.1372453392
     C     1.2677493277    1.6567725075    3.8995120556
     C     2.7409422904    2.7145502699    5.6325675660
     C     2.5816579097    3.7000924015    3.3579561166
     C     7.0477566235   -2.5145817594    3.3091832270
     C     6.4234315050   -3.6099477549    2.6975882832
     C     6.4812941031   -4.8813180882    3.2590759898
     C     7.1751248927   -5.0708213961    4.4504669672
     C     7.8048830036   -3.9874776128    5.0569851885
     C     7.7624427306   -2.6904448693    4.5145036635
    Si     8.6376445254   -1.3212675443    5.5084462084
     C     9.2962187906    0.0640726063    4.4352680324
     C     9.0705574561    1.3663892879    4.6910139621
     C     9.5934775782    2.5297147365    3.9638136872
     C    10.4024278396    2.4316870119    2.8206719386
     C    10.8501609335    3.5688782895    2.1635350173
     C    10.5238390152    4.8524989847    2.6264603001
     C     9.7198212289    4.9553395753    3.7684431492
     C     9.2646414176    3.8158675482    4.4208014242
     C    10.9598609221    6.0535442784    1.8753709760
     C    10.6622283132    6.1368742849    0.5123538927
     C    10.9999981075    7.2609021269   -0.2529432925
     C    11.6537402772    8.3451071119    0.3140808336
     C    11.9729661430    8.2622347317    1.6695449784
     C    11.6474908409    7.1332195162    2.4685508767
     C    12.1963246671    7.4012844692    3.7861502794
     C    12.2715211117    6.6915873451    4.9925786680
     C    12.9160115885    7.2643714268    6.0813930393
     C    13.4919971161    8.5419889761    5.9904079243
     C    13.4437831134    9.2678360939    4.8081193654
     C    12.8002531344    8.6840250112    3.7157793759
     N    12.6423726189    9.1790977568    2.4437309734
     C     7.4611712529   -0.6332566994    6.8120190878
     C    10.1177355643   -2.1111176942    6.3786392051
     C     5.9180049902    0.8254392650   -3.0241158166
     C     6.4232463612   -0.4047942287   -3.2314530600
     C     7.3900557729   -0.8033976838   -4.2628195308
     C     7.9742637554   -2.0765236867   -4.1983193438
     C     8.9333926241   -2.4791576933   -5.1214505273
     C     9.3467216014   -1.6192885749   -6.1453200462
     C     8.7416161250   -0.3555389725   -6.2308446533
     C     7.7834988025    0.0436142486   -5.3119846934
     C    10.3528270635   -2.0504342470   -7.1441415148
     C    10.1463540755   -3.2345349659   -7.8558982367
     C    11.0332225374   -3.6627095168   -8.8529766682
     C    12.1629967470   -2.9243088352   -9.1748709326
     C    12.3896539163   -1.7527265812   -8.4524240332
     C    11.5123427724   -1.2997207030   -7.4312636774
     C    12.1215924903   -0.1027004345   -6.8792413418
     C    11.8100842781    0.7759523387   -5.8320464144
     C    12.6630439872    1.8362396291   -5.5546198947
     C    13.8307275953    2.0398110057   -6.3075542239
     C    14.1742563800    1.1829169020   -7.3444801149
     C    13.3167392684    0.1148106292   -7.6136731136
     N    13.4449939673   -0.8781825210   -8.5550844323
     C     3.1783250953    2.0156543314   -2.3588653358
     H     5.1363423023   -0.7455631230   -0.1827390188
     H     3.7465975808   -0.9132623242   -1.2749369072
     H     3.6085646031    0.0641675686    0.1959954146
     H     4.9850009737    4.1201965730   -2.1620702428
     H     6.0925845598    6.0646380859   -1.1637049582
     H     7.3958821741    5.8046128055    0.9490113525
     H     7.5614796457    3.5757689774    2.0133194427
     H     8.3632590920    1.6538374472   -0.7193596055
     H    10.1812988922    0.1281403956   -1.3566430992
     H    10.4893131550   -2.0339172390   -0.1444966959
     H     8.9725075047   -2.6504163424    1.6887263555
     H     4.5154407429    2.7281146127    2.1647191554
     H     3.2529448759   -0.0647864711    5.1735329457
     H     5.0530524360   -1.5793675298    4.5566930255
     H     1.2063275683    0.7207131494    4.4653172806
     H     1.1368881369    1.4213766283    2.8369586915
     H     0.4331609694    2.2947463266    4.2143005388
     H     2.7132292362    1.8161003400    6.2585168660
     H     1.9166424749    3.3653188882    5.9482633681
     H     3.6834180168    3.2380290660    5.8302481839
     H     2.4447236320    3.5371317014    2.2827019578
     H     3.5068479396    4.2689635745    3.5049009888
     H     1.7477996908    4.3176292418    3.7100787359
     H     5.8815942101   -3.4527984032    1.7675944166
     H     5.9868736527   -5.7157564752    2.7682695940
     H     7.2311266874   -6.0571261672    4.9041160297
     H     8.3480682923   -4.1618128892    5.9831729581
     H     9.9443145090   -0.1985100497    3.5963539420
     H     8.4235517024    1.6313479555    5.5294793185
     H    10.6793774355    1.4552443644    2.4326893894
     H    11.4726524777    3.4673244015    1.2780302522
     H     9.4357807883    5.9372416362    4.1385637047
     H     8.6321016269    3.9197867897    5.3001346110
     H    10.1247566586    5.3155457312    0.0458225371
     H    10.7362608670    7.2854161716   -1.3069370732
     H    11.9157330757    9.2221211169   -0.2710656245
     H    11.8341762207    5.7024308414    5.0785272218
     H    12.9762618143    6.7161414069    7.0175486831
     H    13.9879322356    8.9695225595    6.8579426998
     H    13.8955896140   10.2528714026    4.7289698622
     H    13.0111381689   10.0577986727    2.1116223755
     H     6.5786592142   -0.1625772301    6.3657046412
     H     7.9661698938    0.1099568074    7.4403761983
     H     7.1155975459   -1.4430766620    7.4654837539
     H    10.7928977093   -2.5947188415    5.6632142974
     H     9.8164463843   -2.8607061769    7.1194156611
     H    10.6863635418   -1.3361834913    6.9060545323
     H     6.2373650608    1.6327467900   -3.6895411452
     H     6.1324487854   -1.2141115672   -2.5584287371
     H     7.6814495121   -2.7542837369   -3.3991029811
     H     9.3832389203   -3.4653540156   -5.0385787784
     H     9.0240581467    0.3164220449   -7.0373285604
     H     7.3297134756    1.0256424009   -5.4142969337
     H     9.2544993734   -3.8191574637   -7.6466813149
     H    10.8248470838   -4.5837618288   -9.3908118881
     H    12.8518299467   -3.2461872272   -9.9507978283
     H    10.9133830709    0.6317976760   -5.2386629519
     H    12.4235924137    2.5174730064   -4.7427468629
     H    14.4803071189    2.8791678532   -6.0734009366
     H    15.0814796034    1.3300286905   -7.9240994549
     H    14.2288157870   -0.9877176620   -9.1812216885
     H     2.5379857073    2.4378328820   -1.5750210083
     H     2.6159218401    1.2190941016   -2.8603796895
     H     3.3683587741    2.8011539946   -3.0983731705
