122
-3.1233731555123468e+03 frame 120   xyz file generated by TeraChem
     C     0.7844525595   -1.3413743597    0.7371577988
    Si     2.2497206102   -0.1635002450    0.5986843558
     C     3.4537839374   -0.5038534562    2.0229865639
     C     3.1148024494   -1.4985390977    2.9522283279
     C     3.9143692857   -1.7984812693    4.0489387581
     C     5.1051868508   -1.1006308082    4.2729003044
     C     5.4884582571   -0.0828470922    3.3532378762
     C     4.6642198849    0.2080158394    2.2238978287
     C     5.1132555829    1.2327101151    1.3208695629
     C     6.2650175061    1.9243853581    1.5302603090
     C     7.0969333160    1.6594282015    2.6651590153
     C     6.6974976798    0.6398726077    3.5733251921
     C     7.5127153108    0.3474004022    4.7048385884
     C     7.0975213114   -0.6868863196    5.6081405664
     C     5.9472684572   -1.3792286713    5.4005135923
     C     8.6929935082    1.0757279313    4.9036946634
     C     9.0727461060    2.0741599023    4.0111524766
     C     8.2853375080    2.3644040639    2.9019349153
     C     3.1014501887   -0.4889010247   -1.0587146512
     C     2.5558551174    0.0033183136   -2.2551920559
     C     3.1102856562   -0.3131837294   -3.4915847111
     C     4.2397289489   -1.1357939128   -3.5785365536
     C     4.8008622173   -1.6224630754   -2.3923314777
     C     4.2396505508   -1.3024983069   -1.1585137492
     C     4.7835934791   -1.5163320520   -4.9086414411
     C     6.1232865387   -1.1864244897   -5.3130247390
     C     6.9907717211   -0.4401777335   -4.4793793826
     C     8.2567026092   -0.0897209491   -4.8929901334
     C     8.7106256546   -0.4686723251   -6.1701239284
     C     7.8879476777   -1.1849683343   -7.0092786680
     C     6.5808110605   -1.5676417292   -6.6141871015
     C     5.7274907611   -2.3077635094   -7.5002895837
     C     4.4501694469   -2.6533322616   -7.0903273574
     C     3.9834682429   -2.2026841642   -5.7827413794
     C     2.5528781581   -2.5844184429   -5.7777360416
     C     2.3847385359   -3.9177244212   -5.9880795536
     C     2.4438040643   -4.1628592321   -7.4534757808
     C     3.5543130886   -3.5091940080   -7.9191817383
     C     1.5929291480   -5.1479373703   -8.2192687495
     C     0.1412007240   -4.6427536265   -8.1775159784
     C     2.0354891821   -5.2991991112   -9.6754085976
     C     1.6670264668   -6.5104076436   -7.5133055796
     C     6.2398481171   -2.7256898143   -8.8359808975
     C     7.1379325568   -3.7934254786   -8.9468333357
     C     7.6035493222   -4.2002060272  -10.1933534067
     C     7.1947183535   -3.5617952166  -11.3754421533
     C     6.3011778045   -2.4875066330  -11.2483174183
     C     5.8313307391   -2.0735383851  -10.0037171156
    Si     7.8301862200   -4.1437221865  -13.0586837987
     C     6.7543941597   -5.6166972950  -13.6056211336
     C     5.6694938926   -5.9864920807  -12.7965587998
     C     4.8296735025   -7.0483436354  -13.1111651045
     C     5.0435124134   -7.8072082933  -14.2657823110
     C     6.1321491008   -7.4661190429  -15.1184627665
     C     6.9818986911   -6.3658392919  -14.7893454443
     C     8.0534297490   -6.0651780537  -15.6990546720
     C     8.2754916464   -6.7951171764  -16.8243139561
     C     7.4429856021   -7.9087762011  -17.1643115058
     C     6.3627427900   -8.2341840025  -16.2977608138
     C     5.5145790712   -9.3341950457  -16.6160255508
     C     4.4269826221   -9.6473427677  -15.7346343145
     C     4.2016221647   -8.9160538313  -14.6122042147
     C     5.7649024057  -10.0777780116  -17.7768806694
     C     6.8266637593   -9.7522969828  -18.6162775385
     C     7.6581690083   -8.6787123021  -18.3160182007
     C     7.6853660047   -2.7220436739  -14.2887542039
     C     9.6323272295   -4.6590109393  -12.8321054847
     C     1.5913319499    1.6029004615    0.6671809557
     H     1.0939693010   -2.3917641567    0.7002400344
     H     0.1041033049   -1.1657904098   -0.1047184785
     H     0.2187314433   -1.1817935650    1.6625933845
     H     2.1939902343   -2.0614771662    2.8221511712
     H     3.6170040416   -2.5789395182    4.7457229124
     H     4.5198471832    1.4527954268    0.4383577542
     H     6.5777087205    2.6948127478    0.8293480277
     H     7.7279527942   -0.9042301355    6.4672248410
     H     5.6392692693   -2.1617814028    6.0898498888
     H     9.3116029743    0.8503730234    5.7691511570
     H     9.9910293053    2.6296531058    4.1816401195
     H     8.5848081782    3.1431677407    2.2045024966
     H     1.6774421265    0.6459155743   -2.2307752376
     H     2.6672359982    0.0833677620   -4.4019066946
     H     5.6725362981   -2.2712314190   -2.4368318542
     H     4.6985978255   -1.7021152436   -0.2563296184
     H     6.6394413437   -0.1295860392   -3.5005428517
     H     8.9014875393    0.4870217958   -4.2353553302
     H     9.7077717752   -0.1876141025   -6.4981821130
     H     8.2364476836   -1.4639960002   -7.9984167420
     H     1.9791337898   -1.9438691438   -6.4577501145
     H     2.9665507332   -4.6196112430   -5.3820101700
     H     3.8988746438   -3.7067734766   -8.9312447131
     H     0.0438622071   -3.6834713066   -8.6985350326
     H    -0.1902620678   -4.5059182335   -7.1417994684
     H    -0.5249831837   -5.3669980913   -8.6613150589
     H     2.0059871681   -4.3384324936  -10.2018892370
     H     1.3639750394   -5.9905471853  -10.1971211914
     H     3.0530304489   -5.7010822016   -9.7476549322
     H     1.3593120285   -6.4295785547   -6.4643224614
     H     2.6854523093   -6.9143457751   -7.5437481082
     H     0.9994035465   -7.2257571704   -8.0078942540
     H     7.4696935548   -4.3080649510   -8.0481193189
     H     8.2980668380   -5.0368340750  -10.2380880246
     H     5.9594692806   -1.9559688871  -12.1340196932
     H     5.1373452432   -1.2391894674   -9.9339830527
     H     5.4718481121   -5.4270633848  -11.8857487627
     H     3.9982780177   -7.2996387484  -12.4561878027
     H     8.7075684697   -5.2273535270  -15.4810815485
     H     9.0969234548   -6.5413113281  -17.4902214873
     H     3.7845555673  -10.4875621516  -15.9873270329
     H     3.3749506257   -9.1589553609  -13.9487523441
     H     5.1157109091  -10.9171409226  -18.0148831845
     H     7.0061167129  -10.3406411710  -19.5121170053
     H     8.4864091352   -8.4246068370  -18.9731823292
     H     6.6422796465   -2.4113249771  -14.4166420417
     H     8.0693236232   -3.0021496998  -15.2755544377
     H     8.2568416677   -1.8540455487  -13.9392432712
     H     9.7166587401   -5.5053608954  -12.1408858911
     H    10.2064335294   -3.8244358347  -12.4122708548
     H    10.1084032915   -4.9532676484  -13.7730337928
     H     1.0500893005    1.7600488062    1.6076204720
     H     0.8874602089    1.7839679369   -0.1540068636
     H     2.3844928981    2.3546686331    0.6049826609
