55
-1.4224556216029678e+03 frame 56   xyz file generated by TeraChem
     C     4.0778763982    1.7838822346    0.1776166658
     O     4.7813204974    0.5840679659    0.4342385448
     C     4.7885511066   -0.3620335694   -0.5425065559
     C     4.1942720430   -0.2203118682   -1.7959011449
     C     4.2550478724   -1.2531358893   -2.7331468905
     C     4.9154070474   -2.4467000081   -2.4326869116
     C     5.5127751026   -2.5791593143   -1.1679725679
     C     5.4507013321   -1.5571367295   -0.2378874451
     N     5.0172009911   -3.5489979490   -3.2923273224
     C     4.6679277576   -3.7261707137   -4.5947000766
     N     4.1303199954   -2.7213519233   -5.2889169619
     C     3.8341707199   -3.0371980163   -6.5644656273
     N     3.2877218144   -2.0133488337   -7.2702872320
     C     2.8733906112   -1.9274509492   -8.6081128035
     C     2.5784417743   -3.0255456053   -9.4184513780
     C     2.1536064943   -2.8427367603  -10.7349244879
     C     2.0025590093   -1.5590268135  -11.2595925307
     C     2.2798348757   -0.4557057025  -10.4437271756
     C     2.7106424516   -0.6388899012   -9.1414744208
     O     1.6008488994   -1.2795943535  -12.5277706350
     C     1.2992017605   -2.3752840478  -13.3699041222
     N     4.0331074433   -4.2184470263   -7.1528290291
     C     4.5838254785   -5.1389398570   -6.3462455934
     N     4.9214819570   -4.9603575684   -5.0623224279
     N     4.8342401913   -6.3821093373   -6.8292359635
     C     4.5820110706   -6.9348727655   -8.0986164091
     C     4.6081923532   -6.1983835046   -9.2874034213
     C     4.3776997355   -6.8229309834  -10.5075790454
     C     4.1385125896   -8.2022015018  -10.5902029430
     C     4.1371862430   -8.9378952947   -9.3959088731
     C     4.3482874440   -8.3127599953   -8.1750617571
     N     3.9774121810   -8.8326233809  -11.8213974446
     H     4.1726097992    2.3885469602    1.0809790341
     H     3.0165412451    1.5905233981   -0.0221445832
     H     4.5103731229    2.3286168027   -0.6709647439
     H     3.6725667066    0.6920376620   -2.0650815950
     H     3.7908134332   -1.1296502719   -3.7022886067
     H     6.0316318558   -3.5012741389   -0.9146470701
     H     5.9138330319   -1.6691502395    0.7382583043
     H     5.4414218980   -4.3758950390   -2.8919349536
     H     3.2487603667   -1.1507148962   -6.7430176719
     H     2.6896595354   -4.0277357103   -9.0265625208
     H     1.9412100337   -3.7210464663  -11.3352069014
     H     2.1579329836    0.5439239876  -10.8507926388
     H     2.9291644585    0.2287833002   -8.5224546607
     H     1.0011843606   -1.9466429461  -14.3280640675
     H     0.4732363289   -2.9740327840  -12.9664237561
     H     2.1741534057   -3.0208005790  -13.5166091353
     H     5.1594571604   -7.0246879943   -6.1184681337
     H     4.7994499651   -5.1330775352   -9.2562919380
     H     4.3951520835   -6.2295238168  -11.4193822239
     H     3.9600825966  -10.0106743975   -9.4269258189
     H     4.3286824248   -8.9026706215   -7.2610763550
     H     3.6250933614   -8.2270973790  -12.5527125847
     H     3.4381977472   -9.6887982421  -11.7800444543
