67
-2.6399650637529785e+03 frame 66   xyz file generated by TeraChem
     C     1.3537761733    2.8859609791   -6.0965384935
     O     2.7537336923    2.9979144535   -5.9170802243
     C     3.2027887210    3.4529449474   -4.7216754778
     C     2.3808363213    3.8537629205   -3.6646370251
     C     2.9523053174    4.2982284959   -2.4743723184
     C     4.3374511701    4.3729974519   -2.3256659781
     C     5.1537389040    3.9734092982   -3.3916278199
     C     4.5944347933    3.5119739836   -4.5718016841
     N     4.9169614799    4.8222661229   -1.1081289838
     C     5.9210463984    4.0107935253   -0.5160356257
     C     7.1392094372    4.5546520356   -0.1066125437
     C     8.1299331944    3.7536067982    0.4570356788
     C     7.9173482575    2.3791774079    0.5939188740
     C     6.7012172643    1.8262284625    0.1727655750
     C     5.7134707453    2.6332170614   -0.3667609511
     O     8.8178462058    1.5069930564    1.1104450479
     C    10.0629349795    2.0218150425    1.5442535417
     C     4.5293459103    6.0292348335   -0.5337936933
     C     4.6641104266    6.2542269551    0.8494104080
     C     4.2744478863    7.4546823611    1.4169102882
     C     3.7371319489    8.4962680003    0.6397958648
     C     3.5992887400    8.2611146029   -0.7402419115
     C     3.9819725551    7.0636647588   -1.3168709617
     C     3.3611820355    9.7852468539    1.2190916289
     C     3.4341285471   10.9682579772    0.4919293202
     N     3.1104189176   12.2032511664    0.9252034412
     C     2.6757435206   12.3980242716    2.1583956705
     C     2.5462106042   11.2733682764    3.0319994802
     C     2.8915079929    9.9584631655    2.5594393962
     N     2.6908616732    9.0113463494    3.4827641115
     S     2.1312897260    9.7557945215    4.8114288821
     N     2.1061325735   11.2945816543    4.2905159350
     C     2.3535764100   13.7608783430    2.5468617961
     C     2.4448618201   14.8681251193    1.7152459353
     C     2.1041680038   16.0682086120    2.3480448951
     C     1.7467466969   15.8983794514    3.6815838793
     S     1.8166655147   14.2150445547    4.1240499708
     C     1.2648100730   16.8292142121    4.6603715111
     C     1.4194943758   18.1851886894    4.7355284616
     C     2.2651636312   19.0889071042    3.8995334886
     O     1.9943616212   20.2582405028    3.7504167932
     O     3.3747215149   18.5822276643    3.3509773353
     C     0.6801767793   18.8768330994    5.7413294322
     N     0.0774213996   19.4309766951    6.5670962589
     H     1.2106900487    2.4919556772   -7.1037411245
     H     0.8601646299    3.8620711993   -6.0144478697
     H     0.9125780232    2.1948034141   -5.3682429973
     H     1.3003705260    3.8101746923   -3.7475251536
     H     2.3087204037    4.5933922006   -1.6500906726
     H     6.2340152941    4.0243729620   -3.2877456225
     H     5.2233540478    3.1999110112   -5.4006589215
     H     7.3196367083    5.6189889288   -0.2291639711
     H     9.0645906872    4.2088758732    0.7660429666
     H     6.5452406813    0.7573223875    0.2867175326
     H     4.7706143184    2.1968431145   -0.6841445645
     H    10.6258399483    1.1672151591    1.9224285288
     H     9.9335458122    2.7567692368    2.3482135518
     H    10.6147938134    2.4837874556    0.7165951958
     H     5.0750718453    5.4749480620    1.4827488199
     H     4.3930883854    7.5895107433    2.4864435297
     H     3.1647908315    9.0249222345   -1.3792300562
     H     3.8557490694    6.9217959989   -2.3850720272
     H     3.8081839803   10.9361117469   -0.5283384964
     H     2.7433129253   14.7834047506    0.6773702245
     H     2.0770094365   17.0233213878    1.8363399791
     H     0.6682288675   16.3864710498    5.4567647537
     H     3.5286346740   17.6620889555    3.6287796613
