92
-2.4590672242844503e+03 frame 80   xyz file generated by TeraChem
     C     1.8195528546   -0.1561480078   -0.9645329043
     O     1.4165310788    0.7881374373    0.0111454087
     C     2.3244805908    1.7129798908    0.4072440662
     C     3.6220186849    1.8156085977   -0.1016664323
     C     4.4712497294    2.8127635498    0.3738306368
     C     4.0596291172    3.7185031183    1.3545435459
     C     2.7546770300    3.5978573098    1.8555545147
     C     1.8968108216    2.6125844617    1.3917814142
     C     4.9806701502    4.7768771943    1.8568952730
     C     5.3487102201    5.8179973101    0.9793935846
     C     4.8576096983    5.9035413566   -0.3854182286
     C     5.3983183810    7.0265446414   -0.9121952812
     C     6.1941664241    7.6282382302    0.1442284314
     N     6.1595557191    6.8706024603    1.2773304197
     C     6.8881113871    8.8429721184   -0.0219544401
     C     7.6964660805    9.4476721832    0.9536191095
     C     8.3279649095   10.7261495888    0.8638970491
     C     9.0059499779   10.9462898488    2.0309342251
     C     8.8116401313    9.8112896499    2.8765886643
     C     9.3270264459    9.6356583133    4.1716246661
     C     9.0110144966    8.5603625189    5.0241755616
     N     8.1019101936    7.5752902223    4.7718475759
     C     8.1231213289    6.7786178684    5.8740455586
     C     7.3588835747    5.6092034743    6.0654989278
     C     6.5083342664    5.0285476622    5.1159443050
     N     6.2764755468    5.4855419509    3.8464074461
     C     5.4157888717    4.6506821845    3.1818370213
     C     5.0751088558    3.6043836677    4.0956288613
     C     5.7253791924    3.8410111127    5.2735496400
     C     7.4633522402    4.9173096387    7.3793051487
     C     7.0220709342    5.5537197109    8.5488798398
     C     7.1124657039    4.9236490932    9.7817545225
     C     7.6526035669    3.6429182175    9.8364999107
     C     8.1010268317    2.9819558443    8.6976057916
     C     8.0028340205    3.6260683136    7.4723814998
     N     7.7557598938    2.9736124434   11.1256192827
     O     7.3918068746    3.5838956095   12.1212777098
     O     8.2015950929    1.8347437816   11.1486964482
     C     9.0897071705    7.2550438965    6.8497262483
     C     9.6482173785    8.3656466356    6.3155575135
     C    10.2739845460   10.6743883240    4.6563854279
     C     9.9909908326   11.4419485278    5.7902200618
     C    10.8722447615   12.4176433681    6.2507093639
     C    12.0730034209   12.6403930175    5.5707289508
     C    12.3724372640   11.8808232896    4.4325634224
     C    11.4838106765   10.9166244380    3.9854502764
     O    13.0004573087   13.5576148384    5.9343161313
     C    12.7476466704   14.3321358935    7.0933093738
     N     8.0111050710    8.9405124802    2.1867302944
     C     6.7604635929    9.5667081902   -1.3158588581
     C     7.8756009332    9.7823451687   -2.1304342337
     C     7.7769776208   10.4681352878   -3.3391308613
     C     6.5367842598   10.9604712483   -3.7541594258
     C     5.4088259526   10.7538318079   -2.9493216169
     C     5.5230259342   10.0666901646   -1.7514514442
     O     6.3292284870   11.6433641682   -4.9057712725
     C     7.4520949774   11.8975672105   -5.7310562136
     H     0.9568741633   -0.8030743350   -1.1301703957
     H     2.6648091370   -0.7592050918   -0.6115741274
     H     2.0924781892    0.3346026252   -1.9065673012
     H     3.9815561340    1.1291223843   -0.8604191723
     H     5.4801658170    2.8801703101   -0.0252995514
     H     2.4068950164    4.2942517234    2.6144612773
     H     0.8845913948    2.5255751434    1.7762725274
     H     4.1939693899    5.1971052833   -0.8647180517
     H     5.2755866067    7.4154993900   -1.9136334025
     H     8.2491295440   11.3934499912    0.0177525089
     H     9.5735637854   11.8249552876    2.3017261146
     H     6.6871325666    6.3250840195    3.4501700229
     H     4.4145962782    2.7799290913    3.8681762466
     H     5.6755210351    3.2465824964    6.1748036109
     H     6.5950519146    6.5501253404    8.4863853677
     H     6.7667183748    5.4067342800   10.6882381609
     H     8.5255049371    1.9882117451    8.7786983322
     H     8.3608725609    3.1285556435    6.5760405789
     H     9.3237726485    6.7864024063    7.7960744643
     H    10.4289619093    8.9834597174    6.7372355661
     H     9.0556273761   11.2837331722    6.3206591206
     H    10.6117540141   12.9980699779    7.1289583033
     H    13.3121542495   12.0574871548    3.9171013493
     H    11.7351745225   10.3265767265    3.1079594732
     H    13.6103003760   14.9898621187    7.2083993901
     H    12.6502138150   13.6980686548    7.9826373439
     H    11.8407352391   14.9375357265    6.9776197649
     H     7.6667185651    8.0580760113    2.5509885680
     H     8.8444437997    9.3974534326   -1.8223431872
     H     8.6660057891   10.6061903434   -3.9446711522
     H     4.4517771431   11.1481307536   -3.2787478859
     H     4.6411465336    9.9248363518   -1.1321222799
     H     7.0750946514   12.4631113153   -6.5843549795
     H     7.9069216762   10.9646583013   -6.0850506354
     H     8.2071168667   12.4925486941   -5.2035226980
