67
-1.6210654067160722e+03 frame 63   xyz file generated by TeraChem
     C     2.6527861720    0.0855534789   -1.5830562199
     N     2.3049154036    0.0033796651   -0.1811962832
     C     3.1202979293   -0.6923337488    0.6785902181
     C     4.1885628689   -1.4874198307    0.2021545945
     C     4.9922643635   -2.2052643494    1.0719996328
     C     4.7858240867   -2.1801437627    2.4592763413
     C     3.7369248375   -1.3793290064    2.9345120872
     C     2.9267079321   -0.6497623395    2.0774187816
     C     5.6584981242   -2.9082168212    3.3781617080
     N     6.0733699810   -2.3399653364    4.5583661673
     C     6.9265402802   -3.1971349488    5.1814655777
     N     7.0644773998   -4.3039116593    4.4701113726
     C     6.2838359438   -4.1564615607    3.3532097038
     C     6.1783977661   -5.2529474015    2.3835670620
     C     5.0390404951   -5.4724986457    1.5974584550
     C     4.9521864632   -6.5389083693    0.7142782276
     C     6.0079952097   -7.4673246813    0.5829871540
     C     7.1569373900   -7.2452691919    1.3733459480
     C     7.2281491115   -6.1719893956    2.2481271754
     N     5.9146868118   -8.5510009538   -0.2646542685
     C     4.8297663952   -8.6110349066   -1.2191996069
     C     7.0921645583   -9.3518451799   -0.5181115194
     C     7.5939407162   -2.9310194143    6.4490033612
     C     8.5801375094   -3.8232828816    6.8978835078
     C     9.2497257547   -3.6003927649    8.0890954903
     C     8.9585980853   -2.4805565341    8.8850986949
     C     7.9652043443   -1.5968059674    8.4387804770
     C     7.2949116059   -1.8144530316    7.2435972767
     C     9.6787335934   -2.2390285189   10.1492618652
     C    11.0277671190   -2.6075168747   10.2886144483
     C    11.7148090622   -2.3808967490   11.4705917113
     C    11.0448982249   -1.7746007699   12.5295323926
     C     9.7086971547   -1.3970226817   12.4299020898
     C     9.0353308501   -1.6329498281   11.2420418685
     N    11.7583909368   -1.5273096317   13.7692618277
     O    12.9278395261   -1.8823827168   13.8429956864
     O    11.1566983625   -0.9747598243   14.6811693798
     C     1.3518727225    0.9508695386    0.3541782261
     H     2.6933890292   -0.9107744618   -2.0391994042
     H     3.6240527641    0.5760450372   -1.7492482217
     H     1.8852395024    0.6577401134   -2.1064097713
     H     4.4043464117   -1.5357424936   -0.8593200463
     H     5.8126929202   -2.7902269986    0.6650879784
     H     3.5372439630   -1.3328606211    4.0031751110
     H     2.1307210312   -0.0488064263    2.5028020568
     H     5.8526346827   -1.3949356371    4.8406479115
     H     4.1907052652   -4.7990827780    1.6810288302
     H     4.0452136855   -6.6562393922    0.1315223684
     H     8.0069342993   -7.9149587382    1.3032072820
     H     8.1254063753   -6.0358637386    2.8455625180
     H     3.8583384274   -8.6275790808   -0.7112172045
     H     4.9160115503   -9.5337381736   -1.7955909148
     H     4.8315846911   -7.7622745231   -1.9211023398
     H     7.4761000720   -9.7898596923    0.4103914558
     H     7.9070941324   -8.7764162669   -0.9850723089
     H     6.8255957102  -10.1734077491   -1.1852622975
     H     8.8079015874   -4.6966099774    6.2949427816
     H     9.9947944082   -4.3187780495    8.4199001145
     H     7.7295954361   -0.7104868680    9.0212035581
     H     6.5325652997   -1.1034856688    6.9367852834
     H    11.5543151051   -3.0540868856    9.4507948033
     H    12.7578827266   -2.6556984000   11.5759052667
     H     9.2104233286   -0.9378729789   13.2758095479
     H     7.9857750243   -1.3645858441   11.1699155065
     H     0.8005789959    1.4051909727   -0.4704686834
     H     1.8344726632    1.7541084273    0.9316350773
     H     0.6244304257    0.4539572156    1.0073666431
