57
-1.3902768065868740e+03 frame 68   xyz file generated by TeraChem
     C     2.8776308524   -0.5179086946    1.2817226405
     N     2.3078450073   -0.5859368160   -0.0452937401
     C     2.9695103592   -0.0284752305   -1.1060971308
     C     4.2119515606    0.6283437223   -0.9382004428
     C     4.8744023366    1.1920471843   -2.0147474328
     C     4.3449200144    1.1459000117   -3.3136349626
     C     3.1151592491    0.4909649518   -3.4820462376
     C     2.4413551439   -0.0837862575   -2.4163870843
     C     5.0633019185    1.7074137074   -4.4540709811
     N     5.0813569774    1.0657759339   -5.6646523547
     C     5.8747181679    1.7664535815   -6.5213292183
     N     6.3538720627    2.8465819614   -5.9223159543
     C     5.8620947834    2.8423359518   -4.6476319084
     C     6.1695395655    3.9495207017   -3.7355521649
     C     5.2928284476    4.3720988272   -2.7267994007
     C     5.5930461236    5.4429551252   -1.8981683286
     C     6.7950836788    6.1694703377   -2.0488181690
     C     7.6782112097    5.7442101294   -3.0659179069
     C     7.3633789241    4.6694902598   -3.8829765822
     N     7.0857797962    7.2520319361   -1.2490782297
     C     6.2602607890    7.5221721910   -0.0926944033
     C     8.4032228525    7.8459759749   -1.3111127217
     C     6.1486518905    1.3903496121   -7.8965750216
     C     7.1061293181    2.1252869579   -8.6202941594
     C     7.4029463336    1.8050022988   -9.9314758834
     C     6.7379198344    0.7358940083  -10.5319316054
     C     5.7830223592   -0.0093090131   -9.8435211107
     C     5.4909254372    0.3215178137   -8.5313279433
     N     7.0459314582    0.3924662874  -11.9035266769
     O     7.8789796345    1.0683662751  -12.4965511882
     O     6.4600733851   -0.5584165278  -12.4090465302
     C     1.0550246405   -1.2754459179   -0.2579526824
     H     3.0197826937    0.5211153655    1.6087782258
     H     3.8505007246   -1.0261405764    1.3388559541
     H     2.2009722814   -1.0035006256    1.9859206723
     H     4.6690910101    0.6873190824    0.0432180880
     H     5.8341720395    1.6730859556   -1.8480586670
     H     2.6614144719    0.4436993978   -4.4699231997
     H     1.4910540453   -0.5716725105   -2.6023087628
     H     4.6549037940    0.1650122644   -5.8341024782
     H     4.3457273620    3.8584630350   -2.5883045567
     H     4.8770145344    5.7244069601   -1.1340137467
     H     8.6226988162    6.2547293172   -3.2179426556
     H     8.0645534569    4.3722266968   -4.6579882310
     H     5.2242460266    7.7314524801   -0.3857699486
     H     6.6439287157    8.4062716132    0.4189355276
     H     6.2473830234    6.6858095412    0.6232818942
     H     8.6196844653    8.2190286522   -2.3191283311
     H     9.2005960151    7.1399466977   -1.0316378892
     H     8.4419876949    8.6961629630   -0.6282044616
     H     7.6110847122    2.9507226608   -8.1302475390
     H     8.1411817975    2.3657186543  -10.4929254308
     H     5.2793624086   -0.8307441994  -10.3393659756
     H     4.7352854680   -0.2550627582   -8.0069506164
     H     0.6858698032   -1.6489584384    0.6978929934
     H     1.1697551390   -2.1313431035   -0.9376495323
     H     0.2906603723   -0.6085888560   -0.6799020301
