61
-1.4675881077185350e+03 frame 60   xyz file generated by TeraChem
     C     1.4438565602    2.0237554182    0.7233639124
     N     1.4288046805    0.6350978581    1.1290306405
     C     2.3746591325    0.1758968887    2.0116469250
     C     3.4641200798    0.9815735105    2.4120629235
     C     4.4267292137    0.4989153873    3.2851285348
     C     4.3611177958   -0.7983039099    3.8159358431
     C     3.2701416670   -1.5928237357    3.4312430709
     C     2.3031630192   -1.1274387475    2.5566417236
     C     5.3546799862   -1.2761006770    4.7737827795
     N     5.8706566945   -0.4542643688    5.7378792625
     C     6.7129195991   -1.1760856142    6.5303939083
     N     6.7804361233   -2.4317914006    6.1047597989
     C     5.9591300250   -2.5184583306    5.0170376100
     C     5.8465289667   -3.7765891581    4.2717332901
     C     6.0026792312   -5.0032249396    4.9310979802
     C     5.9329894627   -6.2130526236    4.2571876451
     C     5.7138781867   -6.2590462903    2.8624701440
     C     5.5578985467   -5.0225293079    2.1976995834
     C     5.6308403781   -3.8217400690    2.8875181337
     N     5.6683143612   -7.4549641717    2.1780708439
     C     5.6064919477   -8.6922531803    2.9251792373
     C     5.1993251227   -7.4632017953    0.8088566491
     C     7.4039041089   -0.5951266675    7.6488645602
     C     8.2128981318   -1.2988401143    8.4722437971
     C     8.9383325813   -0.7789911341    9.6170837518
     C     8.8956929222    0.5729144454   10.0184353654
     C     9.6069114327    1.0145283279   11.1178672818
     C    10.3796676441    0.1024996629   11.8385273956
     C    10.4475958935   -1.2406804037   11.4750581558
     C     9.7291685350   -1.6684179105   10.3721275708
     N    11.1284465167    0.5642902685   12.9865037333
     O    11.0529585533    1.7501159454   13.2893827311
     O    11.8051721353   -0.2506069761   13.6039514235
     C     0.2425931893   -0.1539664636    0.8774143667
     H     2.3855007529    2.2797410672    0.2227003369
     H     1.3118210210    2.7111421708    1.5724487050
     H     0.6332605615    2.1949541179    0.0136098407
     H     3.5648771956    1.9926630420    2.0341740186
     H     5.2592279745    1.1477422337    3.5497906764
     H     3.1697515543   -2.5944199496    3.8398941985
     H     1.4751148788   -1.7801445659    2.3038838784
     H     5.6025702301    0.5099140895    5.8857233559
     H     6.1776425219   -5.0043652487    6.0036412285
     H     6.0456884441   -7.1301194080    4.8247796895
     H     5.3867027197   -4.9944667336    1.1273601251
     H     5.5239163838   -2.8950886992    2.3304480579
     H     6.4869756814   -8.8066301599    3.5677054687
     H     5.5978651598   -9.5296995642    2.2255006478
     H     4.7098258599   -8.7622694044    3.5610335892
     H     5.8473064913   -6.8551975158    0.1671636709
     H     4.1704980551   -7.0828891387    0.7115608086
     H     5.2253177437   -8.4861203016    0.4292508712
     H     7.2350638773    0.4686412650    7.8038688027
     H     8.3412978994   -2.3607493374    8.2697442727
     H     8.2992758893    1.2898538903    9.4631551270
     H     9.5734173222    2.0531682425   11.4258453920
     H    11.0551716812   -1.9278536064   12.0523606814
     H     9.7745815247   -2.7138809739   10.0790519069
     H    -0.3845421317    0.3689545568    0.1540753746
     H    -0.3502709791   -0.3245648914    1.7886484394
     H     0.4986871238   -1.1321735461    0.4522824373
