80
-2.4912036914987921e+03 frame 101   xyz file generated by TeraChem
     C     1.1124225821    1.1067489982   -0.2874525051
     C     0.2445202359    1.8568170717   -0.9859903533
     C    -1.2129094991    1.7754374337   -0.9105739276
     C    -1.9021141942    1.0469334598    0.0737665259
     C    -3.2870553993    0.9890984896    0.0814569172
     C    -4.0525792776    1.6591682476   -0.8873511972
     C    -3.3659341066    2.3962146386   -1.8627223843
     C    -1.9792820685    2.4552326070   -1.8706503947
     C    -5.5273664373    1.5957813530   -0.8755069103
     C    -6.2432403356    1.5285507011    0.3313497787
     C    -7.6278475266    1.4663350487    0.3464365477
     C    -8.3666163798    1.4746600844   -0.8489154370
     C    -7.6496168200    1.5307483902   -2.0546464703
     C    -6.2631185560    1.5940870107   -2.0690790487
     C    -9.8268023977    1.4307007047   -0.8981901458
     C   -10.6543637045    1.5733976495    0.1500678033
     S   -12.3926903533    1.3854322463   -0.0007473773
     C   -12.9479611949    2.2820801494    1.4036946004
     C   -14.2345365303    2.5518220083    1.7085971429
     C   -15.3725026309    2.0425909645    0.9014870430
     C   -15.4945087287    0.6809892431    0.5952208165
     C   -16.5616815937    0.2165748734   -0.1706097328
     C   -17.5244692779    1.1063101852   -0.6415019215
     C   -17.4188775897    2.4630506041   -0.3351320014
     C   -16.3571578352    2.9259935712    0.4351010043
     C   -14.5369619766    3.3976380138    2.8891110106
     C   -13.7052511500    4.4674180776    3.2542344763
     C   -13.9812242774    5.2338616892    4.3822159063
     C   -15.1013097654    4.9555265802    5.1639604566
     C   -15.9452815801    3.9058957810    4.8039604643
     C   -15.6691952890    3.1379920584    3.6769030647
     S     2.8455742767    1.3717091909   -0.3668074042
     C     3.4494155365   -0.2027990200    0.1246348001
     C     4.7417902946   -0.5888002526    0.0947878577
     C     5.8355399058    0.3336574200   -0.3065663542
     C     6.0077535583    1.5702648926    0.3286520105
     C     7.0334716916    2.4310880548   -0.0562713321
     C     7.9022336569    2.0685018799   -1.0828772590
     C     7.7449115951    0.8365052484   -1.7180572690
     C     6.7253828047   -0.0262136393   -1.3289845978
     C     5.1006000672   -1.9783009910    0.4680486845
     C     4.2432096179   -3.0566923358    0.1990426749
     C     4.5794715512   -4.3503205089    0.5847393550
     C     5.7868233065   -4.5990819936    1.2362444545
     C     6.6558370147   -3.5405712268    1.4946817370
     C     6.3187732647   -2.2458647599    1.1122765842
     H     0.7903762148    0.3319626806    0.4054347135
     H     0.6351048785    2.5910397145   -1.6906030311
     H    -1.3509349831    0.5204317852    0.8483819454
     H    -3.7862420400    0.3995085149    0.8461038620
     H    -3.9257804624    2.9511632316   -2.6109578804
     H    -1.4731138412    3.0405489866   -2.6352899091
     H    -5.7052363622    1.5417898478    1.2756009203
     H    -8.1395117363    1.4071685529    1.3033550062
     H    -8.1944692562    1.5219940805   -2.9960830960
     H    -5.7425671006    1.6162431334   -3.0228955030
     H   -10.2562568968    1.2802881245   -1.8886329188
     H   -10.2930347952    1.7600805729    1.1592125555
     H   -12.1470848352    2.6377278284    2.0475757389
     H   -14.7583386635   -0.0218131254    0.9768108199
     H   -16.6434692723   -0.8443955211   -0.3918962878
     H   -18.3568690971    0.7445790038   -1.2392827724
     H   -18.1676506191    3.1633299161   -0.6962413838
     H   -16.2812816115    3.9833450363    0.6757147857
     H   -12.8487733018    4.7145754143    2.6324593044
     H   -13.3264228886    6.0616766609    4.6420652200
     H   -15.3202735942    5.5584773334    6.0411857259
     H   -16.8226691485    3.6812706363    5.4050731895
     H   -16.3291594968    2.3179444880    3.4072700205
     H     2.6787426190   -0.8880613031    0.4694138656
     H     5.3442153907    1.8495707266    1.1429859830
     H     7.1562961021    3.3833810404    0.4529774688
     H     8.7024354865    2.7395301810   -1.3837122687
     H     8.4199276543    0.5463224696   -2.5190301388
     H     6.6092850342   -0.9877340973   -1.8226968905
     H     3.3159929475   -2.8825636999   -0.3406860108
     H     3.9019543120   -5.1702833085    0.3605766408
     H     6.0519789002   -5.6110080471    1.5307215525
     H     7.6012810474   -3.7219543734    1.9996113109
     H     7.0005184113   -1.4269958765    1.3252374499
