57
-9.6232695532609341e+02 frame 151   xyz file generated by TeraChem
     C     3.3093639983    1.1409932549   -1.6515444476
     C     3.4709122936   -0.3628416320   -1.4286457571
     C     2.3777034137   -0.6613922820   -0.3961107941
     N     1.2405610694    0.1714787836   -0.8115682550
     C     1.8078770574    1.4191392080   -1.3682774037
     C     1.6171799671    2.5886430197   -0.4024998400
     C     0.1717345430    3.0129476008   -0.2092117880
     C    -0.0371522815    4.1042424576    0.8623419658
     C    -1.2824396014    4.8762381313    0.3845221076
     C    -1.6435912857    4.2278890516   -0.9771236574
     N    -0.4291643500    3.5416630045   -1.4410340352
     C    -2.1881988107    5.1914959320   -1.9954050803
     C    -3.6616973149    5.4877791802   -2.0322954705
     C    -3.0252432810    4.6965372409   -3.1404509590
     C    -1.6928594793   -5.9323207621    2.8141768998
     C    -0.5438673516   -5.6402536626    1.9015039301
     C    -0.1214977434   -4.1723909201    1.9310354599
     N     1.0634838646   -3.9473182588    1.0977658586
     C     1.0667203621   -2.4961991812    0.8596614420
     C     2.0304571264   -2.1365124753   -0.2638487121
     C    -0.4124601955   -2.1127587665    0.6494610388
     C    -1.1998462658   -3.1657680672    1.4544158763
     N    -1.6080736694   -6.8004059524    3.7416618332
     H     3.6061487381    1.4604308293   -2.6556250001
     H     3.9319368052    1.6956763942   -0.9375640031
     H     4.4745508992   -0.6463934881   -1.0922513711
     H     3.2534544864   -0.9220206766   -2.3495238750
     H     2.7207304893   -0.2952630076    0.5847859736
     H     0.7664368368   -0.3249963736   -1.5634806023
     H     1.2712060918    1.6554643868   -2.2936135018
     H     2.1969918075    3.4533631813   -0.7618816594
     H     2.0435278193    2.3135103160    0.5726316277
     H    -0.4119236236    2.1237116454    0.0691066319
     H     0.8404891713    4.7627373232    0.8882452771
     H    -0.1525477108    3.6782254594    1.8649227792
     H    -1.0554760868    5.9398113569    0.2435142286
     H    -2.1173408563    4.8166454485    1.0907838987
     H    -2.3990016825    3.4462649520   -0.8033596312
     H     0.2048051191    4.2595653464   -1.8009984053
     H    -1.5268561607    6.0323663204   -2.2086296236
     H    -3.9763117746    6.5069234283   -2.2397001882
     H    -4.2991381123    4.9540500934   -1.3311474955
     H    -3.2304375057    3.6296270940   -3.1847063765
     H    -2.9047517876    5.1724632247   -4.1099380643
     H    -2.6071088535   -5.3505144224    2.6297146245
     H    -0.8447474440   -5.8911622091    0.8717535935
     H     0.2999083571   -6.2828474088    2.1747764165
     H     0.1641366050   -3.9163187274    2.9615750125
     H     0.8925524040   -4.3986393646    0.1954480294
     H     1.4235457035   -2.0272785241    1.7896022406
     H     1.6250640527   -2.4981247916   -1.2228513143
     H     2.9648355620   -2.6869360272   -0.0922983817
     H    -0.6528321535   -2.1859257940   -0.4186855269
     H    -0.6226524801   -1.0843288486    0.9550779415
     H    -1.9445013835   -3.6670577324    0.8235441748
     H    -1.7392671119   -2.7276634176    2.3009330220
     H    -2.4955598422   -6.8512798397    4.2488951663
