46
-1.2588137935939603e+03 frame 31   xyz file generated by TeraChem
     O     1.4661192403   -0.0408893598    0.2233878071
     N     2.6013931353   -0.4956015273    0.1780672161
     O     3.1274462836   -1.1093482216    1.0967843737
     C     3.3710237581   -0.2943355170   -1.0387407021
     C     2.8008811707    0.4238361879   -2.0867786012
     C     3.5372782278    0.6139914672   -3.2437852791
     C     4.8379364976    0.0860545348   -3.3560789261
     C     5.3859091443   -0.6366760991   -2.2789090140
     C     4.6552101577   -0.8269225328   -1.1184705617
     C     5.5889537465    0.2808931978   -4.5447565901
     C     6.2311924013    0.4486601965   -5.5644119437
     C     6.9768960200    0.6465281663   -6.7577322476
     C     8.2336876192    0.0393717170   -6.9253833979
     C     8.9622393824    0.2389047674   -8.0880668886
     C     8.4436679389    1.0366583994   -9.1140169029
     C     7.1904554061    1.6394985495   -8.9589006472
     C     6.4679154649    1.4528804879   -7.7908426374
     N     9.1784243070    1.2319573798  -10.3008096804
     C     9.7256124290    0.2255789660  -11.0947266862
     C     9.6652513306   -1.1596190125  -10.9377818558
     C    10.2816952644   -1.9453760071  -11.9050595842
     C    10.9377961565   -1.3741019559  -13.0063442074
     C    10.9803729099    0.0051298735  -13.1656977745
     C    10.3678309759    0.8167675244  -12.2072138394
     C    10.2023159864    2.2452576280  -12.0745494573
     C     9.4621680512    2.4628777624  -10.8895083769
     C     9.1587420667    3.7501428392  -10.4442660248
     C     9.5892402823    4.8193493248  -11.2218268960
     C    10.3093892076    4.6199596106  -12.4098984390
     C    10.6235369063    3.3367369331  -12.8387303850
     H     1.7981820518    0.8227809260   -1.9877298155
     H     3.1130075180    1.1715458286   -4.0723387942
     H     6.3877583086   -1.0448602417   -2.3627179024
     H     5.0652244499   -1.3791838654   -0.2811264430
     H     8.6399778886   -0.5782788484   -6.1303451772
     H     9.9434264480   -0.2120232585   -8.2000190868
     H     6.7788639038    2.2411611859   -9.7633719570
     H     5.4943929761    1.9193590913   -7.6757214813
     H     9.1520525430   -1.6136599644  -10.0960134640
     H    10.2500532711   -3.0268991292  -11.8035151021
     H    11.4103433843   -2.0185590966  -13.7422874167
     H    11.4771316146    0.4494454248  -14.0245905877
     H     8.6106503525    3.9172358719   -9.5223344858
     H     9.3630061632    5.8315061186  -10.8972314516
     H    10.6282005172    5.4787340605  -12.9939364395
     H    11.1922076846    3.1804897505  -13.7520458391
