90
-2.2724395648431228e+03 frame 148   xyz file generated by TeraChem
     C     3.2326863035    0.5601837264   -1.0894704271
     C     4.7623480169    0.4514193861   -1.0816197723
     C     5.5139144647    1.6688091188   -0.4486649220
     C     5.0123414419    2.1089340469    0.9405181499
     C     3.8338005528    3.0978101557    0.9449487629
     C     4.0576795109    4.2512216645    0.0099843872
     C     3.9069294069    5.5412193783    0.3381293194
     S     3.3174739635    6.1162411640    1.9025950342
     C     4.0601199811    7.7021256251    1.9858617497
     C     4.0819159271    8.4390040997    3.1095054479
     C     4.6212646127    9.7912848911    3.2376058511
     C     4.7403381251   10.3568194279    4.5174705194
     C     5.2619793862   11.6301170768    4.7018237910
     C     5.6855768968   12.4034095638    3.6116061774
     C     5.5563447703   11.8432793157    2.3294627261
     C     5.0352167183   10.5724824798    2.1446737724
     C     6.2473350373   13.7552741839    3.7988326443
     C     7.0135595699   14.0735175534    4.9326899913
     C     7.5522452354   15.3385079940    5.1097926198
     C     7.3566390865   16.3505728668    4.1545303036
     C     6.5769758890   16.0357827248    3.0298005216
     C     6.0376425941   14.7690983023    2.8533380047
     C     7.9256817691   17.6922706225    4.2630158284
     C     8.8489573837   18.0904074708    5.1542604365
     S     9.4138106965   19.7494645232    5.2545407869
     C    10.9240189370   19.5458627995    6.1542160370
     C    12.0523373061   20.2264194353    5.9109573878
     C    12.2656787757   21.1667410162    4.7608398672
     C    13.4900344611   20.7258795971    3.9470706919
     C    14.7933217382   20.5477525362    4.7476609728
     C    14.5098479157   19.6671082165    5.9808598846
     C    13.2595298140   20.0512244810    6.7905178733
     C    15.6458271271   21.8294677349    5.0251400142
     C    15.1682531508   22.6793454591    6.2086487974
     C    17.0876765653   21.3857092801    5.3200155299
     C    15.6902878615   22.7220069668    3.7781381354
     C     4.4930069310    3.8629181696   -1.3774826884
     C     5.7013609821    2.9212497931   -1.3246361797
     C     5.1337388684   -0.8050856448   -0.2782407110
     C     5.2360637353    0.2292362317   -2.5237089602
     H     2.8219953199    0.6028536174   -0.0746753495
     H     2.8067780154   -0.3283607392   -1.5729447523
     H     2.8742762170    1.4345319702   -1.6425539540
     H     6.5317891046    1.2814051517   -0.2905443117
     H     5.8512373936    2.6003132868    1.4518946998
     H     4.7509904747    1.2398379398    1.5552048953
     H     3.6737850679    3.4565418337    1.9686449035
     H     2.9090386260    2.5851764979    0.6505142057
     H     4.0802240900    6.3285858389   -0.3942011719
     H     4.4772127093    8.0611165340    1.0470786787
     H     3.6795692885    8.0086929183    4.0267140572
     H     4.4135837929    9.7832832550    5.3822056433
     H     5.3186849711   12.0391412121    5.7072381821
     H     5.8877841055   12.4080233430    1.4618701500
     H     4.9498566852   10.1845722592    1.1331533548
     H     7.2077561118   13.3088688517    5.6804602429
     H     8.1343895292   15.5392287818    6.0054765409
     H     6.3926074956   16.8035886634    2.2814251864
     H     5.4242297892   14.5712734990    1.9780752038
     H     7.5681840415   18.4104701788    3.5249222071
     H     9.2779026912   17.4142104832    5.8916565120
     H    10.8586253969   18.8579361299    6.9964755808
     H    12.4122394917   22.1862705329    5.1429872556
     H    11.3845997909   21.1975630923    4.1109670389
     H    13.6394725140   21.4110424473    3.1066986221
     H    13.2488451798   19.7502560954    3.5020661459
     H    15.4437943176   19.9495949722    4.0918499341
     H    15.3764952955   19.6469919115    6.6519383232
     H    14.3697978970   18.6357287020    5.6297855096
     H    13.4375603131   20.9940813673    7.3232383734
     H    13.0704853861   19.2897769301    7.5568349062
     H    15.2325381153   22.1295576318    7.1540049051
     H    14.1386801284   23.0301158869    6.0828667006
     H    15.8082699800   23.5656133596    6.3046770237
     H    17.1469606662   20.7276796392    6.1944360992
     H    17.7208406754   22.2583194797    5.5212636255
     H    17.5165957119   20.8489716362    4.4646080229
     H    14.7289628412   23.2120211505    3.5876580072
     H    15.9628519112   22.1476563202    2.8835847176
     H    16.4403872131   23.5112851839    3.9105151092
     H     4.7379358862    4.7561482045   -1.9644684699
     H     3.6593413654    3.3673350620   -1.8941536686
     H     6.5424743056    3.4897098787   -0.9027859886
     H     6.0008801283    2.6474520056   -2.3413381259
     H     4.8323867681   -0.7254197029    0.7723684559
     H     6.2154391896   -0.9864829053   -0.3060591274
     H     4.6348237223   -1.6872848580   -0.6976722971
     H     4.8816175679    1.0164847673   -3.1986187249
     H     4.8497250954   -0.7256397547   -2.8998017758
     H     6.3313657006    0.1969035020   -2.5840885650
