39
-8.9546855957870662e+02 frame 58   xyz file generated by TeraChem
     C     1.2453477341   -1.7372587612    0.2672703184
     C     2.6437890721   -1.5519436205   -0.2236522617
     C     3.1034682105   -0.4974882335   -1.0710396472
     C     4.5286985564   -0.5877321005   -1.1687044889
     C     4.9461123342   -1.7551847616   -0.4208264305
     C     3.7681982739   -2.3616720242    0.1240251663
    Fe     3.5439592089   -2.3109804206   -1.9041016575
     C     2.4697046264   -2.3988552185   -3.6305832970
     C     2.1480859406   -3.5143266698   -2.7961780451
     C     3.3519890358   -4.2439542848   -2.5560956779
     C     4.4039146522   -3.6422268464   -3.3167158600
     C     3.8531814271   -2.4861125603   -3.9917966922
     C     4.6893215333   -1.6953677745   -4.8320119661
     C     5.9945454404   -2.0690045000   -5.0081964658
     C     6.5375890567   -3.2124729253   -4.3446461735
     C     5.7757674104   -3.9792398237   -3.5044116062
     C     0.7834823979   -3.8906144923   -2.3198775679
     C     6.3310110602   -2.0816706423   -0.3418896194
     C     7.2421408826   -1.2622627170   -0.9527501806
     C     6.8289247663   -0.1115675563   -1.6926786966
     C     5.5067161971    0.2203762012   -1.8176943337
     H     0.5129453411   -1.3805086925   -0.4632981472
     H     1.0926960353   -1.1698012646    1.1942472085
     H     1.0320580857   -2.7885484508    0.4831327879
     H     2.4782764059    0.2587091808   -1.5307514454
     H     3.7335857444   -3.2555157319    0.7358735845
     H     1.7709513128   -1.6374286673   -3.9564098549
     H     3.4412986436   -5.1257168148   -1.9325255290
     H     4.2781225884   -0.8332302225   -5.3516922701
     H     6.6366065642   -1.4923442024   -5.6692383512
     H     7.5780043795   -3.4746845681   -4.5195802071
     H     6.1915535499   -4.8557775966   -3.0134967812
     H     0.1361080129   -3.0140031783   -2.2234551671
     H     0.8208761396   -4.3998858576   -1.3517787306
     H     0.3091820059   -4.5749943899   -3.0351313979
     H     6.6527569265   -2.9479875180    0.2311600110
     H     8.3037848656   -1.4830869306   -0.8762290253
     H     7.5879491210    0.5120993616   -2.1583523686
     H     5.2011544703    1.1055254196   -2.3702182922
