72
-2.0368690550003125e+03 frame 88   xyz file generated by TeraChem
     C     2.5084674007    1.9041487570    0.5388309104
     C     3.5247574856    1.9813228551   -0.6008278511
     C     2.8927930375    1.7023002545   -1.9705582583
     C     2.5106393246    0.2270140860   -2.1689407821
     C     3.6841501781   -0.6686582950   -1.8923107658
     C     4.1694341461   -1.5933550525   -2.7337994566
     S     3.4458659057   -2.0284390916   -4.2894465226
     C     4.8776563829   -2.1122568030   -5.3029930170
     C     4.9405962885   -2.8637245067   -6.4156232893
     C     6.0561119512   -2.9078243674   -7.3590691332
     C     6.0477745981   -3.8743777855   -8.3774360390
     C     7.0886446385   -3.9727133180   -9.2904826464
     C     8.1878901856   -3.1038780828   -9.2320074388
     C     8.1927832624   -2.1300416292   -8.2187205218
     C     7.1531741109   -2.0301638787   -7.3078873484
     C     9.2956871296   -3.2048879162  -10.2021559377
     C     9.0689223464   -3.6287317973  -11.5226488211
     C    10.1044927722   -3.7298375876  -12.4379486856
     C    11.4265860981   -3.4168768885  -12.0766552351
     C    11.6502383066   -2.9824552673  -10.7601814147
     C    10.6121374733   -2.8801377774   -9.8442785105
     C    12.5631918636   -3.5190181818  -12.9893810844
     C    12.5422615309   -4.0684260458  -14.2155803334
     S    13.9316562707   -4.0600450753  -15.2833473353
     C    13.4307100390   -5.2252295352  -16.5146479306
     C    14.2677968512   -5.8618072887  -17.3437228811
     C    13.7330634884   -6.7742640874  -18.4172809961
     C    14.4116441577   -8.1491551988  -18.3715106759
     C    15.9426241802   -8.0518845421  -18.4063609770
     C    16.4247696436   -7.1378976952  -17.2727472091
     C    15.7665357257   -5.7507232158  -17.2992038426
     C    16.4678587316   -7.6104462354  -19.7726633486
     C     4.3457028484   -0.4357816357   -0.5593148097
     C     4.7186325888    1.0425864120   -0.3840327734
     H     1.6867604971    2.6111226961    0.3744503683
     H     2.9806640223    2.1534498885    1.4964011989
     H     2.0675726459    0.9059159481    0.6402669129
     H     3.9116124253    3.0099971990   -0.6201029265
     H     3.6092518936    1.9821539831   -2.7548332668
     H     2.0047544639    2.3312759534   -2.1124048446
     H     2.1296112645    0.0716941997   -3.1837408314
     H     1.6937555472   -0.0339930760   -1.4806160480
     H     5.0338745248   -2.1938343777   -2.4554079859
     H     5.6957178283   -1.4684011313   -4.9869647155
     H     4.0977887287   -3.5120008347   -6.6566593412
     H     5.2129737862   -4.5688507600   -8.4413730797
     H     7.0583540363   -4.7523350575  -10.0469384746
     H     9.0115082329   -1.4174642211   -8.1648340756
     H     7.1862414866   -1.2441298880   -6.5583767399
     H     8.0561895734   -3.8533505003  -11.8470419156
     H     9.8747775681   -4.0372137127  -13.4546396382
     H    12.6630987002   -2.7350899176  -10.4496909734
     H    10.8334927204   -2.5675207688   -8.8271047219
     H    13.5021109995   -3.1140703667  -12.6115549904
     H    11.6444610265   -4.5186423557  -14.6346328031
     H    12.3526202633   -5.3514812766  -16.6014906953
     H    13.9177390136   -6.3126235994  -19.3992226488
     H    12.6462140758   -6.8825738368  -18.3235167325
     H    14.0527412729   -8.7653267157  -19.2060558001
     H    14.1097335111   -8.6580678807  -17.4457476632
     H    16.3427619176   -9.0570386300  -18.2120562307
     H    17.5157271392   -7.0251533830  -17.3168199507
     H    16.1941219880   -7.6144641876  -16.3100840473
     H    16.1074225194   -5.2006567904  -18.1888650293
     H    16.0937455448   -5.1674949193  -16.4307853658
     H    16.1143009459   -6.6114181431  -20.0510671929
     H    16.1429306443   -8.3047653599  -20.5565157821
     H    17.5639133717   -7.5851109251  -19.7770167105
     H     5.2336231530   -1.0693197213   -0.4520740373
     H     3.6482252722   -0.7298884275    0.2390327393
     H     5.5049277337    1.2912139077   -1.1099650485
     H     5.1471462515    1.1976989824    0.6145798532
