85
-1.9663414024610283e+03 frame 145   xyz file generated by TeraChem
     C    -1.2451521154   -2.1767412172    5.1712790745
     C    -0.3801319242   -1.1123136660    4.5061810342
     C     0.8411792845   -1.7196635796    3.8213171992
     C     1.7270709196   -0.7150678990    3.0864644023
     N     2.3037666118    0.3025111281    3.9678754957
     C     3.3626963899    0.1294626580    4.7806900799
     C     4.0632238868   -1.0802417446    4.8292950516
     C     5.1527865289   -1.5100464869    5.5631604450
     C     6.1546754768   -1.2404766016    6.5643910475
     C     6.7606036418   -2.5128671335    6.4846900253
     C     5.7621976994   -2.8753326186    5.4520058876
     O     5.5073326440   -3.8502771598    4.7797989746
     C     7.8330069353   -3.1496774672    7.1160154749
     C     8.1400792750   -4.4556181122    6.8090822415
     C     9.1888662205   -5.2530581557    7.3574233986
     C    10.1302147747   -4.7754278097    8.2917738067
     C    11.1182908968   -5.5957659523    8.7970298937
     C    11.2280217011   -6.9431596045    8.3945645760
     C    10.2834502374   -7.4185278303    7.4518587531
     C     9.2981282434   -6.6048992586    6.9533594583
     O    10.3459415754   -8.7006333978    6.9726046350
     C    11.1477330122   -9.5937835471    7.6384196404
     C    12.0906166825   -9.1658591410    8.5854626762
     N    12.1978597198   -7.7917691916    8.8650504485
     C    13.2566916718   -7.3052730555    9.7426758662
     C    12.8773793794   -7.3092425391   11.2232405462
     C    13.9879026185   -6.7597965803   12.1186928986
     C    15.2324891785   -7.6402902015   12.1813899303
     C    12.8789157315  -10.1363962437    9.2084643637
     C    12.7438870323  -11.4847935220    8.8768617871
     C    11.8118742529  -11.8868886708    7.9285916122
     C    11.0051634119  -10.9310712467    7.3118150820
     O     6.5221718931   -0.2604900078    7.3607625333
     C     3.6121496512    1.4051578297    5.5658285564
     C     2.5343918593    2.3077680987    5.0218740883
     C     1.7836709984    1.6012029400    4.0814142119
     C     0.7095190178    2.1710177046    3.4085451593
     C     0.4152438306    3.5004163834    3.6993905762
     C     1.1647480867    4.2320557516    4.6301918290
     C     2.2289932924    3.6202650122    5.3109278895
     C     0.8727461194    5.6518432587    4.9750289520
     O     1.2749467479    6.1728776118    5.9934589932
     O     0.1370662894    6.3740748975    4.1161073940
     C     4.9994447323    1.9921186733    5.2565914311
     C     3.3754147234    1.1593792209    7.0671621620
     I    -0.9678775343    0.3090400435    0.0940676302
     H    -2.1251610702   -1.7321915441    5.6479995877
     H    -0.6815146236   -2.7167127819    5.9415298996
     H    -1.5950476027   -2.9115563717    4.4368153310
     H    -0.0607057952   -0.3802831742    5.2598600728
     H    -0.9741981780   -0.5610576117    3.7652856180
     H     0.5130664770   -2.4472473437    3.0680877213
     H     1.4382098684   -2.2772335112    4.5545760489
     H     1.1518261174   -0.1948121779    2.3153442076
     H     2.5522569811   -1.2197688857    2.5759977132
     H     3.7056855560   -1.8651945222    4.1671858910
     H     8.4006953046   -2.5866311080    7.8527922078
     H     7.5078299481   -4.9472753691    6.0703849270
     H    10.0892100963   -3.7461582234    8.6340730895
     H    11.8104761341   -5.1913003402    9.5254955301
     H     8.6012453024   -7.0189033444    6.2298135036
     H    13.5244078301   -6.2947923952    9.4192013814
     H    14.1408377618   -7.9196917195    9.5561252576
     H    12.6219585031   -8.3313854572   11.5320929626
     H    11.9689713828   -6.7083557950   11.3556738034
     H    13.5834609857   -6.6386720882   13.1311478991
     H    14.2623293855   -5.7516570861   11.7775959905
     H    14.9779093798   -8.6521932911   12.5196360765
     H    15.9667083179   -7.2291622482   12.8827260368
     H    15.7263935926   -7.7286716778   11.2070839930
     H    13.6016859094   -9.8513265320    9.9642557115
     H    13.3742949907  -12.2159546800    9.3739324942
     H    11.7027768314  -12.9349282455    7.6669510739
     H    10.2635102032  -11.2050251714    6.5673978836
     H     5.9679895170    0.5311349942    7.2736331623
     H     0.1164095118    1.6254047757    2.6788965001
     H    -0.4411018326    3.9455688143    3.1991842403
     H     2.7915946940    4.1927164325    6.0420544914
     H    -0.0098528995    5.9001790040    3.2818210619
     H     5.0715628749    2.2720017577    4.2016353094
     H     5.8101326948    1.2845804944    5.4531268968
     H     5.1584266165    2.8874512198    5.8654354231
     H     2.3386082520    0.8612562066    7.2496682410
     H     3.5751282423    2.0793947041    7.6254883778
     H     4.0092436249    0.3612623657    7.4655424609
