76
-1.6245774853474109e+03 frame 133   xyz file generated by TeraChem
     C     3.0791428495    1.2467745137    1.0731093073
     C     3.9738405423    0.2120240267    0.4016375999
     C     4.1599676013   -1.0356799109    1.2599005756
     C     5.1051525215   -2.0307568163    0.5931745766
     N     5.2935653015   -3.2440096670    1.3843038973
     C     4.5960856544   -4.3888202223    1.2797856247
     C     3.5524355792   -4.5463390671    0.3540061591
     C     2.8475987210   -5.7154456796    0.1712868051
     C     1.7840888092   -5.9353676553   -0.7496020506
     C     1.2897702340   -4.9502735265   -1.6287334913
     C     0.2488950722   -5.2179675557   -2.4917235152
     C    -0.3692139521   -6.4868179113   -2.5303874114
     C     0.1351110759   -7.4767023545   -1.6490331766
     C     1.1701361209   -7.2111613564   -0.7905876936
     O    -0.3921142153   -8.7391648132   -1.6197725745
     C    -1.4805551571   -9.0088240196   -2.4084271277
     C    -2.0064198323   -8.0589235489   -3.2990916602
     N    -1.4192539634   -6.7782942346   -3.3611104259
     C    -1.9758289714   -5.7273325513   -4.2151250121
     C    -1.2104526995   -5.4309037739   -5.5070420177
     C    -1.2194856589   -6.5125089056   -6.5904217597
     C    -0.2530247180   -7.6712931272   -6.3613742144
     C    -3.0925694930   -8.4492438235   -4.0876335934
     C    -3.6432061905   -9.7256402368   -3.9746493939
     C    -3.1175798189  -10.6427709954   -3.0747211558
     C    -2.0255254535  -10.2762872857   -2.2903990890
     C     5.1244730750   -5.3971721872    2.2995323722
     C     6.1982354828   -4.5858960900    2.9817374145
     C     6.2536743342   -3.3194618208    2.4039726461
     C     7.1452777237   -2.3427117884    2.8297975572
     C     8.0121723364   -2.6838173265    3.8646104757
     C     7.9835221551   -3.9559194639    4.4511545840
     C     7.0562706598   -4.9131751095    4.0103189379
     C     8.8813658635   -4.3578825325    5.5703038588
     O     8.6597215239   -5.3190673636    6.2753568969
     O     9.9814682760   -3.6224973167    5.7960098270
     C     5.7566659047   -6.6269773782    1.6196419862
     C     4.0451214363   -5.8056454814    3.3177941222
     I    -0.2801439389   -1.9713055660    1.0112277306
     H     2.9492741895    2.1292413774    0.4374580639
     H     3.5083814399    1.5784823771    2.0260176378
     H     2.0865586364    0.8301750463    1.2790625566
     H     4.9550191256    0.6561403207    0.1835942623
     H     3.5422458827   -0.0782567321   -0.5658748757
     H     3.1885042401   -1.5169565731    1.4324674190
     H     4.5592417653   -0.7545224234    2.2432625652
     H     6.0953908512   -1.5895663865    0.4457612841
     H     4.7421959190   -2.3174247205   -0.3963287623
     H     3.2869060146   -3.6818351366   -0.2447186574
     H     3.1062427471   -6.5781244222    0.7773020814
     H     1.7178004890   -3.9536679288   -1.6369164235
     H    -0.0933675218   -4.4266124410   -3.1456236830
     H     1.5090208889   -8.0058909835   -0.1317049440
     H    -2.0404340703   -4.8172912089   -3.6095562539
     H    -3.0080552286   -5.9897624268   -4.4461789967
     H    -0.1721836526   -5.1625396796   -5.2727648395
     H    -1.6750211270   -4.5219537326   -5.9108222649
     H    -0.9576506262   -6.0277309685   -7.5397494838
     H    -2.2413850646   -6.8937177741   -6.7227945007
     H     0.7688396925   -7.3010742328   -6.2144247174
     H    -0.2426514619   -8.3433095052   -7.2268456338
     H    -0.5206194070   -8.2692913183   -5.4852287411
     H    -3.5225345602   -7.7681862164   -4.8113523890
     H    -4.4870704852   -9.9909414135   -4.6043436956
     H    -3.5418852293  -11.6376707194   -2.9808024010
     H    -1.5773031367  -10.9635842173   -1.5791436648
     H     7.1719930285   -1.3485077444    2.3969851136
     H     8.6906847868   -1.9150458157    4.2254971457
     H     7.0364421160   -5.8895310418    4.4851006237
     H    10.1210892133   -2.9615364065    5.0998030853
     H     6.5056594403   -6.3251215907    0.8815946722
     H     5.0069238808   -7.2484161903    1.1240525350
     H     6.2486816051   -7.2359981270    2.3843082469
     H     3.5974428608   -4.9264881635    3.7908003465
     H     4.5094224893   -6.4199400735    4.0956169991
     H     3.2498096616   -6.3918633916    2.8511929725
