36
-7.6627889988180732e+02 frame 39   xyz file generated by TeraChem
     C     2.8514854097    0.5084540389   -1.3647849720
     C     4.2652647521    0.1089607424   -0.9313635413
     N     5.1758882802    1.1223319005   -0.4216534700
     C     5.6990558118    2.0769928562   -1.3842160671
     C     4.9035092741    3.3752608738   -1.4533737002
     O     4.7943144046    3.9526728516   -0.1626157463
     C     4.1374898526    3.0808069665    0.7430936212
     C     4.9408192973    1.7535311477    0.8705002560
     C     4.3622287136    0.7872555399    1.9191545123
     C     4.2120491697    1.5194870773    3.2164639655
     C     4.1961639839    1.1700620389    4.5421074130
     N     4.0102490661    2.3030929949    5.3170363276
     C     3.9133540130    3.4068874788    4.5065719858
     C     4.0342852294    2.9302568540    3.1878814460
     C     4.0055809117    3.7719411125    2.0750020947
     C     3.8555381054    5.1306623759    2.3096791365
     C     3.7280933941    5.6124872399    3.6315920659
     C     3.7522831811    4.7768559971    4.7448561887
     H     2.3203417530   -0.3769578826   -1.7357014145
     H     2.8666227498    1.2484818643   -2.1718095073
     H     2.2674128244    0.9215868104   -0.5352470926
     H     4.7729425142   -0.3474974087   -1.7914477537
     H     4.1916176756   -0.6850943873   -0.1792448948
     H     5.7461907221    1.6063306109   -2.3730206921
     H     6.7283413169    2.3375045179   -1.0910526937
     H     3.8996340745    3.2045938886   -1.8718377674
     H     5.4176828944    4.1136388276   -2.0778081484
     H     3.1321997625    2.8483848368    0.3473146196
     H     5.9305146461    2.0748345094    1.2379548834
     H     5.0193202947   -0.0859343455    2.0063931600
     H     3.3840495162    0.4159722242    1.5827544524
     H     4.3027858384    0.2047684713    5.0198420520
     H     3.9792409882    2.3075992947    6.3252557750
     H     3.8416152472    5.8313572988    1.4795854919
     H     3.6100394077    6.6822234556    3.7861572718
     H     3.6550712973    5.1791546808    5.7495814095
