65
-1.5449019016272009e+03 frame 68   xyz file generated by TeraChem
     C     2.6473293249   -1.6184386659    0.7451973054
     N     2.4528632113   -0.3860493767    0.0124359067
     C     3.1516155544   -0.1728239739   -1.1517076799
     C     4.1920680742   -1.0383493391   -1.5569716333
     C     4.9157819159   -0.7935369466   -2.7137419830
     C     4.6440347705    0.3097329487   -3.5368387130
     C     3.5948228772    1.1563611680   -3.1472160027
     C     2.8656122819    0.9277766822   -1.9926086453
     C     5.3863936085    0.5293588740   -4.7756331914
     N     5.7451803941   -0.5130593767   -5.5863717222
     C     6.3656829992   -0.0188023003   -6.6954871911
     N     6.4419067703    1.3056962819   -6.6256988323
     C     5.8525974760    1.6683542952   -5.4479563082
     C     5.8140349337    3.0773543865   -5.0419917439
     C     5.7846029954    4.0893591020   -6.0113045384
     C     5.7735384468    5.4332860773   -5.6695122216
     C     5.8049593763    5.8419623775   -4.3180834599
     C     5.8361954284    4.8223949639   -3.3412549650
     C     5.8488747471    3.4830736281   -3.7009068899
     N     5.8193351913    7.1755735101   -3.9671063539
     C     5.5651550502    8.1736008054   -4.9832934280
     C     5.5911572711    7.5404896452   -2.5855098029
     C     6.8498576659   -0.8655988428   -7.7488555961
     C     7.4595326245   -0.4131486447   -8.8726623128
     C     7.9293022250   -1.2817959666   -9.9101565147
     C     8.5462203250   -0.8350654752  -11.0329348807
     C     9.0463394443   -1.6441630559  -12.1284098610
     C     8.9299130694   -3.0501088471  -12.1753696024
     C     9.4227113101   -3.7729213480  -13.2451590862
     C    10.0449600770   -3.0949410578  -14.2947013491
     C    10.1793637242   -1.7081400920  -14.2866662362
     C     9.6813275197   -0.9978035639  -13.2089293113
     N    10.5628931464   -3.8484849114  -15.4149995878
     O    10.4449581243   -5.0690448021  -15.3974983616
     O    11.0967089592   -3.2332167224  -16.3314763257
     C     1.2747105728    0.4055288274    0.2940986226
     H     3.6936514641   -1.7335969600    1.0513048655
     H     2.3627693255   -2.5071989911    0.1615064350
     H     2.0386379009   -1.5920083391    1.6502705316
     H     4.4441394869   -1.9071300555   -0.9596242818
     H     5.7234065582   -1.4737455982   -2.9760565278
     H     3.3354253016    2.0057033602   -3.7729953378
     H     2.0551943394    1.6046966420   -1.7472501488
     H     5.5107027272   -1.4837418901   -5.4241654203
     H     5.7630775487    3.8105197611   -7.0614389980
     H     5.7339526806    6.1707493824   -6.4635771041
     H     5.8628544253    5.0747044896   -2.2870068759
     H     5.8943045523    2.7349753565   -2.9145457019
     H     6.3121048134    8.1169521908   -5.7832909872
     H     5.6387941505    9.1649096146   -4.5328029854
     H     4.5681839897    8.0725725819   -5.4404569470
     H     6.3730900450    7.1319534486   -1.9348292440
     H     4.6176218914    7.1885231092   -2.2101888784
     H     5.6221696069    8.6277032242   -2.4954339948
     H     6.7045578516   -1.9366991310   -7.6130784116
     H     7.6031863404    0.6589316215   -9.0006433677
     H     7.7685394586   -2.3490934514   -9.7593406591
     H     8.6911929019    0.2397247919  -11.1413121475
     H     8.4453790416   -3.5857905024  -11.3651965911
     H     9.3325236774   -4.8524720126  -13.2807858867
     H    10.6675532245   -1.2068870431  -15.1143575283
     H     9.7810293131    0.0842503655  -13.1925170199
     H     0.8829212128    0.1204036827    1.2716671815
     H     0.4792153702    0.2623446567   -0.4531585586
     H     1.5174654562    1.4737902305    0.3315655610
