62
-1.8060799134413005e+03 frame 49   xyz file generated by TeraChem
     C     2.1000751887    6.3578083374   -2.3561587282
     C     1.4515489769    5.3935535231   -3.3498889886
     C     1.7993512100    3.9277089945   -3.0529498120
     C     3.2583540752    3.5845589272   -3.3916229963
     C     3.5678387922    3.9573902333   -4.8140958526
     C     3.9985123086    3.1130432971   -5.7602964078
     S     4.2841262741    1.3824306720   -5.5234686231
     C     5.4166387740    1.0616872092   -6.8243249608
     C     5.5501618086   -0.1509145129   -7.3893739339
     C     6.5194977746   -0.5114040228   -8.4205579694
     C     6.3863896086   -1.7478497468   -9.0779954903
     C     7.2519592941   -2.1302986068  -10.0899446579
     C     8.3041284312   -1.2918144241  -10.4971290970
     C     8.4482232796   -0.0638757108   -9.8263354840
     C     7.5846212749    0.3170488827   -8.8116893392
     C     9.2397127661   -1.6211447580  -11.5685819628
     C     9.2331512012   -2.7417963145  -12.3113423466
     S    10.4085080959   -3.0505760395  -13.5743338964
     C     9.7313429509   -4.4993329165  -14.3271205375
     C    10.4288177426   -5.3620267810  -15.0777023580
     C     9.7438326170   -6.5350277594  -15.7288600524
     C    10.4623983785   -7.8494152977  -15.3967617226
     C    11.9617554787   -7.8031099393  -15.7209479648
     C    12.6050061991   -6.6038954725  -15.0132219728
     C    11.9073053191   -5.2741988647  -15.3353011705
     C    12.2333620355   -7.8071333351  -17.2257473136
     C     3.2640052589    5.3936360693   -5.1486630502
     C     1.8055253017    5.7291142395   -4.8050103142
     H     1.7951163434    6.1201519295   -1.3301921452
     H     1.7994354606    7.3909886737   -2.5664747782
     H     3.1949396796    6.3211196317   -2.3903533288
     H     0.3630523016    5.5014422147   -3.2412832668
     H     1.1421420000    3.2782785986   -3.6469665827
     H     1.6028936824    3.7010614142   -1.9972120028
     H     3.4511266174    2.5232562436   -3.1996114540
     H     3.9257110830    4.1531340901   -2.7272004592
     H     4.1582233488    3.4550786372   -6.7810963474
     H     6.0330012525    1.9094873659   -7.1161531051
     H     4.8747348245   -0.9490500939   -7.0806366566
     H     5.5771640355   -2.4147075637   -8.7881922618
     H     7.1050112874   -3.0940737356  -10.5698943154
     H     9.2627496923    0.5990788499  -10.1100896465
     H     7.7466739243    1.2681343821   -8.3116236483
     H    10.0021978880   -0.8672981359  -11.7670101945
     H     8.5001894813   -3.5325667807  -12.1660320889
     H     8.6589391949   -4.6204414032  -14.1848382462
     H     9.7438275525   -6.3883103536  -16.8195839956
     H     8.6932197637   -6.5869464611  -15.4204821359
     H     9.9852356249   -8.6768393050  -15.9378538645
     H    10.3366523272   -8.0540328043  -14.3246652404
     H    12.4169386233   -8.7133594624  -15.3059579892
     H    13.6672608148   -6.5329863797  -15.2802527747
     H    12.5603840915   -6.7663415688  -13.9276414083
     H    12.0686519868   -5.0254873403  -16.3945280168
     H    12.3639546632   -4.4649733665  -14.7538686676
     H    11.8150853188   -6.9273774234  -17.7275557451
     H    11.7928880343   -8.6941516202  -17.6961102346
     H    13.3113300377   -7.8190417481  -17.4253137610
     H     3.4634186786    5.5982773794   -6.2066711135
     H     3.9308489625    6.0448100971   -4.5641897122
     H     1.1503064052    5.1532667121   -5.4727251313
     H     1.6123796144    6.7911190117   -5.0047892509
