80
-2.0416503591709024e+03 frame 62   xyz file generated by TeraChem
     C     2.2941710649    0.2089156420   -0.5450667131
     C     2.3164621225    0.6905319062    0.9110223969
     C     3.1122519390    2.0151668032    1.1550084433
     C     2.3822421915    3.3433870739    0.8856249679
     C     2.3474393292    3.7903292480   -0.5811773361
     C     3.7387802144    3.8307291151   -1.1457401805
     C     4.2799786946    4.8908096587   -1.7597637553
     S     3.4087690867    6.3858429486   -2.1272932662
     C     4.7290194013    7.5297630325   -2.2807418671
     C     4.5477260831    8.8574304052   -2.1749717726
     C     5.5620740730    9.8858755325   -2.3887071175
     C     6.8378460577    9.6255249328   -2.9245531288
     C     7.7679256809   10.6366520776   -3.0903558212
     C     7.4706546037   11.9683806043   -2.7429655188
     C     6.1990618392   12.2273252381   -2.2078312830
     C     5.2671744805   11.2130741174   -2.0396741462
     C     8.4021829277   13.0791508861   -2.9184854769
     C     9.5735623812   13.0348529033   -3.5762307349
     S    10.6696479307   14.4022822306   -3.6479675037
     C    11.7461895553   13.9195876086   -4.9645123075
     C    12.3630248205   14.7742341222   -5.7918189976
     C    12.1589871460   16.2616634422   -5.7974682249
     C    11.8662476401   16.8021580462   -7.2087007193
     C    12.8188020242   16.3233289547   -8.3213110584
     C    12.9684292384   14.7937899167   -8.2169198510
     C    13.3351426971   14.2695490366   -6.8240371620
     C    14.1247925218   17.1669506650   -8.4940403965
     C    14.8857179732   17.4539476808   -7.1936258715
     C    15.0835153352   16.4725269193   -9.4692328863
     C    13.7358243700   18.5192904750   -9.1121262759
     C     4.5280532847    2.5635052828   -0.9573610409
     C     4.5069758943    2.0720116750    0.4994006933
     C     0.8683352888    0.8395906570    1.3936601357
     C     2.9713885151   -0.4157464991    1.7535326504
     H     1.8641131587    0.9492593428   -1.2275218774
     H     1.6841040198   -0.7002916737   -0.6214207615
     H     3.2987873653   -0.0448238233   -0.9003458843
     H     3.2884038713    2.0097300550    2.2412062391
     H     2.9157810035    4.1220265229    1.4487840124
     H     1.3650744267    3.3220535590    1.2895602809
     H     1.8682985826    4.7736351806   -0.6518155731
     H     1.7302027027    3.1000752966   -1.1733589763
     H     5.3020900569    4.8627744522   -2.1347118522
     H     5.6963837936    7.0909460321   -2.5190171573
     H     3.5614435640    9.2278785865   -1.8947732064
     H     7.1061071068    8.6149292755   -3.2213244746
     H     8.7450992269   10.3863045483   -3.4949576399
     H     5.9397100808   13.2458181788   -1.9269626373
     H     4.2892812911   11.4470918226   -1.6243497392
     H     8.0867210228   14.0246236590   -2.4767780249
     H     9.9300612240   12.1337472066   -4.0716592329
     H    11.9442412958   12.8496457067   -5.0160779305
     H    13.0597098102   16.7385089119   -5.3913395251
     H    11.3347308622   16.5411014829   -5.1309941837
     H    11.8307667856   17.8970614823   -7.1672703391
     H    10.8528751388   16.4757201011   -7.4788820643
     H    12.2838790148   16.4880311056   -9.2686313561
     H    13.6851090987   14.4182026142   -8.9542444466
     H    11.9969746901   14.3556387942   -8.4868794039
     H    14.3503756072   14.5969776897   -6.5582523592
     H    13.3519669691   13.1731396114   -6.8302306930
     H    15.1960760322   16.5389789297   -6.6783889296
     H    14.2885596440   18.0549036269   -6.4992897418
     H    15.7941994692   18.0268321503   -7.4197026839
     H    15.5184125716   15.5645295726   -9.0370998958
     H    15.9103209792   17.1470646398   -9.7221024489
     H    14.5759695200   16.1968780037  -10.4024074219
     H    13.0327316065   19.0710155885   -8.4779884248
     H    13.2687011703   18.3835198227  -10.0954854279
     H    14.6248879560   19.1476756704   -9.2443904991
     H     5.5662396683    2.7093879543   -1.2791674975
     H     4.1039939170    1.7925497045   -1.6135536495
     H     5.1244016283    2.7619228940    1.0907159706
     H     5.0006235792    1.0948286592    0.5555379214
     H     0.2861403349    1.5045803073    0.7456818205
     H     0.8263742134    1.2374989067    2.4154599621
     H     0.3733739823   -0.1389722505    1.3934049574
     H     4.0206095596   -0.5733868731    1.4780876250
     H     2.4464963759   -1.3678765260    1.6085458857
     H     2.9365545025   -0.1709596378    2.8223709151
