31
-1.7841161995943035e+03 frame 78   xyz file generated by TeraChem
     F     2.8029487627   -0.1084239967   -2.6345040687
     P     3.7089538378   -1.4228313848   -2.3086053359
     F     2.7675624520   -1.7321715111   -1.0090664166
     F     2.7454389184   -2.3342423722   -3.2322438414
     F     4.6073505947   -2.7197477409   -1.9516817180
     F     4.6388397662   -1.0860305513   -3.5901698925
     F     4.6749411619   -0.5004228073   -1.3657872985
     C     1.4540010822    0.8885586116    2.3918349069
     N     2.4616881292    0.5575049709    1.3979047998
     C     2.6465963161    1.2578290513    0.2966899022
     C     1.7768105333    2.2487211846   -0.1898665314
     C     0.3845965583    2.2898619208   -0.1373299841
     N    -0.4206262439    1.2374017513   -0.1039415144
     C     0.0268471536   -0.1074360668   -0.4293657224
     C    -1.8479557168    1.4149941474    0.1222718057
    Cl     2.5534666870    3.5853307980   -1.0195823032
     C     3.3721698935   -0.5309658223    1.7381119073
     H     0.5212233155    0.3370365758    2.2429740606
     H     1.2458711765    1.9607028828    2.3476864037
     H     1.8551690109    0.6314371038    3.3745310353
     H     3.5857545319    1.0791218714   -0.2197346376
     H    -0.1132817141    3.2550028958   -0.2126577646
     H     0.8814990209   -0.0545758547   -1.1076856869
     H    -0.8013384780   -0.6242351727   -0.9200057901
     H     0.3144872831   -0.6859307137    0.4540774141
     H    -2.0774068251    2.4771758318    0.2187845669
     H    -2.1467574366    0.9015426303    1.0414592542
     H    -2.4052390620    0.9903230650   -0.7181690073
     H     3.8723177877   -0.2970727232    2.6827595188
     H     4.0978801451   -0.6622355927    0.9380500406
     H     2.8013129138   -1.4563839061    1.8515680711
