37
-9.3127210764067263e+02 frame 86   xyz file generated by TeraChem
     C    -0.3928066281    0.5872130450   -0.0010737229
     C    -0.8443493601   -0.0245151348    1.2080833136
     C    -1.1694812632   -1.3821171222    0.9227912151
     C    -0.8979365606   -1.6007419626   -0.4585466699
     C    -0.4411058049   -0.3826547550   -1.0382336181
     O     1.8605981524   -1.5095819633    1.9871232785
     C     2.6477445168   -0.6042892084    1.4910762885
     C     2.8066103009   -0.6611626250    0.0661604394
     C     2.6051193637   -1.8994053675   -0.6770174115
     C     2.9174746488   -1.6312797788   -1.9990017265
     C     3.2714959453   -0.2514878177   -2.1260299285
     C     3.2038030024    0.3463236098   -0.8878659421
     C     3.2167983955    0.4097825824    2.3660216600
     C     4.3513549927    1.0755323569    2.0686902446
     C     5.0175250272    2.0902207376    2.8774980660
     C     4.4848489540    2.5922394433    4.0777783650
     C     5.1660591480    3.5628599161    4.7996935347
     C     6.3901154436    4.0546808181    4.3402970099
     C     6.9293892095    3.5684104949    3.1512658995
     C     6.2479622339    2.5959819581    2.4275169198
    Fe     0.7912587729   -0.9822856563    0.5007830713
     H    -0.0154934328    1.5981500818   -0.0936567676
     H    -0.8817560999    0.4499903331    2.1812825459
     H    -1.4908172268   -2.1301328351    1.6362503567
     H    -0.9595277570   -2.5555039774   -0.9675737667
     H    -0.0851605614   -0.2526777816   -2.0518904557
     H     2.4615576269   -2.8816113930   -0.2382703233
     H     2.9220512045   -2.3580395067   -2.8047878007
     H     3.5165392925    0.2481352671   -3.0576721607
     H     3.3416929750    1.3973691271   -0.6630228849
     H     2.7019044100    0.5427697120    3.3148451482
     H     4.8507297806    0.8314886159    1.1317228952
     H     3.5300576033    2.2256709161    4.4440279153
     H     4.7414222883    3.9428135979    5.7249948848
     H     6.9182645638    4.8159481603    4.9081267036
     H     7.8802806662    3.9473778791    2.7867540933
     H     6.6671460688    2.2159617023    1.4985880693
