37
-9.3124473425763881e+02 frame 76   xyz file generated by TeraChem
     C    -0.6931149801    1.6128399801   -0.1401351688
     C    -1.4525581981    0.9237424766   -1.1298716733
     C    -1.5918725512   -0.4272385891   -0.7168534546
     C    -0.9296916739   -0.5820036507    0.5363767717
     C    -0.3759341547    0.6822384044    0.8943070567
     O     2.1057297850   -0.1935254488   -1.1120654061
     C     3.3550338537   -0.1474800990   -0.6671496608
     C     3.5898924474    0.6701033947    0.5448000300
     C     4.3631159689    0.1834205936    1.6069849576
     C     4.5564603068    0.9546817964    2.7503513466
     C     3.9822400518    2.2203218047    2.8458002238
     C     3.2045144563    2.7100910531    1.7958853085
     C     3.0018102717    1.9383028795    0.6573535497
     C     4.3213168586   -0.8369076149   -1.3524295869
     C     5.7197736482   -0.7616215525   -1.1058537340
     C     6.6899979346   -1.4707725174   -1.7646727530
     C     6.5354896668   -2.4724084536   -2.8117907476
     C     7.7806827612   -2.9003529757   -3.1629828006
     C     8.7710739405   -2.1935108793   -2.3590110289
     C     8.1202343405   -1.3388956752   -1.5219316634
    Fe     0.3948682226    0.0669018939   -0.8459781779
     H    -0.3634519173    2.6431093018   -0.1943497440
     H    -1.7778763790    1.3328531357   -2.0789105903
     H    -2.0444197451   -1.2231330317   -1.2958990617
     H    -0.8045124033   -1.5107304876    1.0793259705
     H     0.2351689915    0.8841297162    1.7650461635
     H     4.7906316460   -0.8133980080    1.5461626967
     H     5.1502592527    0.5607539842    3.5707365984
     H     4.1350904096    2.8223350578    3.7375424321
     H     2.7549056173    3.6971012224    1.8649792594
     H     2.3929947741    2.3184992768   -0.1583245141
     H     3.9727434516   -1.4456878046   -2.1839410678
     H     6.0548676358   -0.0597820095   -0.3432633173
     H     5.5918995865   -2.8081684570   -3.2259496772
     H     8.0139647649   -3.6464061978   -3.9161214030
     H     9.8442541758   -2.3377798561   -2.4299392797
     H     8.5582344611   -0.6652034318   -0.7933103634
