57
-1.6441494226657683e+03 frame 302   xyz file generated by TeraChem
     C    -1.7475561625   -1.9245461577   -4.4585364006
     C    -2.3955639023   -3.1929535112   -4.5175611218
     C    -2.4852438086   -3.7034487956   -3.1904160521
     C    -1.8955912587   -2.7503326666   -2.3084555574
     C    -1.4400523919   -1.6509978243   -3.0941714041
     O     2.8995198424    1.3760894525    2.7116344653
     C     3.6677480340    1.7570393001    1.8482970423
     C     3.7937416519    1.2120634508    0.4641783017
     C     3.0963118152    0.1787446302   -0.1267968952
     C     3.3921768900   -0.1501464128   -1.4663708558
     C     2.7047662438   -1.2124201433   -2.1171935018
     C     2.1193409088   -2.1230494241   -2.6721873873
     C     1.4719486396   -3.2033849498   -3.3222415489
     C     1.2163412063   -3.3186397163   -4.7330408342
     C     0.5606359961   -4.5573952611   -4.9634646877
     C     0.3838584058   -5.2052451645   -3.7061291375
     C     0.9379262958   -4.3791618751   -2.6915335567
     C     4.3794342435    0.5825853098   -2.1532663571
     C     5.0769192738    1.6246221375   -1.5415987486
     C     4.7804565513    1.9369297543   -0.2224697567
     C     5.3295714023    2.9594614710    0.6885365833
     C     4.6714379594    2.8591264852    1.9279784542
     C     4.9900372482    3.7115890285    2.9899253371
     C     5.9993380128    4.6737929606    2.7698982465
     C     6.6437340900    4.7643867369    1.5424591002
     C     6.3179857692    3.9090442653    0.4829112306
     C     4.3427850615    3.6454576052    4.2565233063
     C     3.8205713365    3.6396771157    5.3608246423
    Si     2.9975789414    3.6051453047    7.0162005843
     C     3.6473813491    5.0514916499    8.0272653374
     C     1.1428462832    3.7599600415    6.7464117718
     C     3.4201764237    1.9697195206    7.8425975466
    Fe    -0.5304336986   -3.3754638140   -3.6894219453
     H    -1.4936592813   -1.3001307708   -5.3058346918
     H    -2.7151993218   -3.7020869936   -5.4183078434
     H    -2.8886117891   -4.6673595934   -2.9058896250
     H    -1.7792294241   -2.8605680098   -1.2375440936
     H    -0.9030991441   -0.7861067090   -2.7240734322
     H     2.3367537276   -0.3696672860    0.4229401498
     H     1.4728877285   -2.5744621700   -5.4759149712
     H     0.2042049102   -4.9173913118   -5.9200456503
     H    -0.1248597496   -6.1473374240   -3.5447796806
     H     0.9453575769   -4.5772961885   -1.6275795069
     H     4.5995607625    0.3213227341   -3.1840959804
     H     5.8345874348    2.1698767428   -2.0976177846
     H     6.2673012482    5.3478511302    3.5775541524
     H     7.4156919255    5.5163921663    1.4049140459
     H     6.8307875315    3.9933451416   -0.4710687380
     H     3.4346398843    6.0076458814    7.5363684610
     H     4.7304222033    4.9779033770    8.1760753158
     H     3.1710757532    5.0657676509    9.0150221720
     H     0.8912446858    4.7023240426    6.2473358931
     H     0.6183973060    3.7372232880    7.7093973467
     H     0.7609422263    2.9363017190    6.1332271941
     H     4.5021098910    1.8590548051    7.9748612434
     H     3.0606198526    1.1215161458    7.2496878274
     H     2.9509249405    1.9145501063    8.8323422859
