21
-6.4796512898199467e+02 frame 50   xyz file generated by TeraChem
     C     1.3256477899   -0.1813206128   -0.3991958817
     O     2.0871620140   -0.0382635939    0.8071599590
     C     2.8551938869    1.0819379836    0.9095711711
     C     2.5482977184    1.9382280164    1.9787205772
     O     1.5146916915    1.6408193906    2.7959492556
     C     3.3001913022    3.0944377753    2.2072971327
     C     4.3704351817    3.4279690012    1.3806863145
     C     4.6775736329    2.5774490353    0.3285906821
     C     3.9358824073    1.4212094730    0.0933976592
     C     4.5522018676    0.7146981478   -1.0418187860
     O     4.2695931950   -0.3395437038   -1.5668446177
     O     5.6000410485    1.4556481573   -1.4796541063
     C     5.7677296918    2.6432654470   -0.6939415913
     H     0.6913908072   -1.0558804112   -0.2469827238
     H     1.9883733661   -0.3438486157   -1.2517699084
     H     0.7022094516    0.7040769697   -0.5620369303
     H     1.1390938341    0.8002229475    2.4739785108
     H     3.0239898894    3.7310674617    3.0429648950
     H     4.9478081328    4.3285035678    1.5678976039
     H     5.6889962860    3.5081514956   -1.3610274511
     H     6.7717728199    2.6253743288   -0.2577945570
