67
-1.8747334013444238e+03 frame 112   xyz file generated by TeraChem
     C     0.3078503563   -0.9637546571    1.6421680395
     C    -0.9007125070   -1.2301448117    0.9335145513
     C    -0.9632276290   -2.6325556366    0.6766877668
     C     0.2014439749   -3.2344244730    1.2350831629
     C     0.9839114661   -2.2040024736    1.8341943878
     O     1.0346438812    1.2122444665   -1.7723053960
     C     2.2404411130    1.1050284471   -1.6371402990
     C     3.0033488176   -0.1510517804   -1.3752026331
     C     2.5304722616   -1.4391684551   -1.2423976067
     C     3.4530172255   -2.4757983940   -0.9667302326
     C     4.8227130587   -2.1532593306   -0.8484844157
     C     5.2854188791   -0.8462120286   -0.9931033300
     C     4.3679998331    0.1623038280   -1.2567779873
     C     4.5337834316    1.6126253526   -1.4511056563
     C     3.2685790993    2.1857433704   -1.6808387884
     C     3.1225078318    3.5596486492   -1.8985138340
     C     4.2920348402    4.3498015280   -1.8811314566
     C     5.5365537869    3.7748563999   -1.6533802674
     C     5.6759787351    2.3994245846   -1.4346620703
     C     1.8602146937    4.1762338399   -2.1317435439
     C     0.8090681325    4.7647320158   -2.3343704098
    Si    -0.8051329594    5.6099504370   -2.6448855564
     C    -0.8000284065    7.2442618556   -1.7141301457
     C    -0.9698828904    5.8885792125   -4.4975848940
     C    -2.1781152325    4.4891600884   -2.0155407425
     C     3.0041528896   -3.8076359703   -0.7970575746
     C     2.6089717405   -4.9527770666   -0.6315417073
     C     2.1453162021   -6.2689939324   -0.4230226123
     C     3.0089247137   -7.2893906765    0.0375343685
     C     2.5487811627   -8.5700939980    0.2563280385
     C     1.1928765241   -8.9402317493    0.0332152780
     C     0.3405264833   -7.9019271272   -0.4351279737
     C     0.7945924815   -6.6188833089   -0.6558058683
     C     0.7169766884  -10.2717797086    0.2634591206
     C     1.4852519297  -11.3873570303    0.7294314346
     C     0.6492865868  -12.4941389169    0.8095242328
     C    -0.6582251993  -12.0973111237    0.3977331485
     C    -0.6194192346  -10.7487085854    0.0662016302
    Fe    -0.8462943721   -2.2620638875    2.6415324636
     H     0.6028252350   -0.0079692290    2.0589964921
     H    -1.6790216704   -0.5089998584    0.7121973111
     H    -1.7998200991   -3.1597255922    0.2328549950
     H     0.4050956725   -4.2973795862    1.2847068294
     H     1.8856491939   -2.3511612335    2.4168789171
     H     1.4719197569   -1.6605537388   -1.3443849451
     H     5.5279012611   -2.9521915047   -0.6389889482
     H     6.3469242026   -0.6340783672   -0.8966679864
     H     4.2068708382    5.4188269285   -2.0491524201
     H     6.4183637800    4.4095489370   -1.6456222935
     H     6.6564893411    1.9663477576   -1.2580771959
     H     0.0137071455    7.8941662524   -2.0544698849
     H    -0.6821055004    7.0854245900   -0.6365146962
     H    -1.7463471034    7.7746127358   -1.8757088715
     H    -0.1598365073    6.5194540965   -4.8797631698
     H    -1.9213314782    6.3863439561   -4.7208102056
     H    -0.9494219771    4.9389505269   -5.0436625526
     H    -2.0871826116    4.3177620395   -0.9371163598
     H    -2.1572406251    3.5161356843   -2.5185827611
     H    -3.1565780140    4.9473957839   -2.2036963983
     H     4.0536903324   -7.0513095350    0.2230078372
     H     3.2483472731   -9.3210879539    0.6126838959
     H    -0.7044832126   -8.1262437696   -0.6301900967
     H     0.1083712493   -5.8585583987   -1.0228877244
     H     2.5426686259  -11.3730163574    0.9768445752
     H     0.9383295491  -13.4914911067    1.1307214109
     H    -1.5323862984  -12.7416810747    0.3518016092
     H    -1.4604317078  -10.1582615060   -0.2854243646
