45
-1.2356108203392864e+03 frame 212   xyz file generated by TeraChem
     C     1.4198803832    2.3835437192   -0.0907915703
     C     0.7056629516    1.2603351630   -0.5768664877
     C     1.0680974823    0.1266088024    0.2073191466
     C     1.9981341803    0.5577043328    1.2017242121
     C     2.2264587675    1.9513941931    1.0068453013
     C     2.1068896207   -5.5044970997    1.3693105494
     C     3.0640942406   -4.8213722924    1.0795677870
     C     4.1965198074   -4.0254177388    0.7380141130
     C     5.5056375743   -4.5465899646    0.8974094102
     C     6.6384587372   -3.8134783399    0.5728356288
     C     6.4866408152   -2.5184797248    0.0743852886
     C     5.1697812956   -1.9917006431   -0.0809046084
     C     4.0336504233   -2.7290573398    0.2403918048
     C     5.2884472102   -0.6538459004   -0.6068357323
     O     4.3610379091    0.1505524091   -0.9086691162
     C     6.7172671168   -0.3771311899   -0.7711814660
     C     7.4456217645   -1.5201129331   -0.3503795597
     C     8.8358618430   -1.4869492791   -0.4086080302
     C     9.4768896343   -0.3430972781   -0.8728606806
     C     8.7531759562    0.8048373134   -1.2929691572
     C     7.3280485735    0.7650295797   -1.2315280989
     C     9.3761685270    1.9621530167   -1.7604903428
     C     9.9081153590    2.9959323214   -2.1766752696
     C    10.5043932874    4.1498682849   -2.6388408745
     C     9.8272931275    5.3524032118   -3.0581769591
     C    10.7884259518    6.2607140611   -3.4421276833
     C    12.0872332276    5.6558669184   -3.2774463235
     C    11.9203555737    4.3784961483   -2.7913244959
    Fe     2.7284031012    0.9030892402   -0.6229991984
     H     1.4264431825    3.3729513359   -0.5314252493
     H     0.0864918426    1.2403591815   -1.4659631247
     H     0.7381167948   -0.8918068290    0.0412988015
     H     2.5073695485   -0.0764955023    1.9168243071
     H     2.9375128292    2.5616095246    1.5506935235
     H     1.2613373891   -6.1074432983    1.6261224201
     H     5.6145449263   -5.5551523062    1.2856445831
     H     7.6242402700   -4.2494775247    0.7064556316
     H     3.0398218413   -2.3120432059    0.1062588684
     H     9.4282026954   -2.3427630860   -0.0942604062
     H    10.5610809110   -0.3147124286   -0.9187605578
     H     6.7485863061    1.6280622509   -1.5475221217
     H     8.7515481027    5.4886019946   -3.0581424738
     H    10.6078104580    7.2661928380   -3.8096137310
     H    13.0348690732    6.1356522954   -3.5020480822
     H    12.6926154880    3.6543067642   -2.5572860157
