59
-2.4111746152497681e+03 frame 69   xyz file generated by TeraChem
     N     4.2726789112   -1.2681320765    1.5853480331
     C     3.7717094596   -0.6620910739    0.7253121252
     C     3.1619918367    0.0065954017   -0.3664756942
     C     2.8021766350    1.3258024800   -0.3506091386
     C     2.9390802270    2.2940238293    0.6815904535
     C     3.4732359165    2.2084614393    1.9650549086
     C     3.4094362596    3.4156541666    2.6631609077
     C     2.8268670224    4.4464639840    1.9331267196
     S     2.3587033462    3.9064755706    0.3652942125
     C     2.6280973973    5.8014949780    2.4197838936
     N     3.0394249768    6.0753406017    3.6457957520
     C     2.8741080085    7.3063187384    4.1730426517
     C     2.2958474922    8.4046291682    3.5488064927
     C     1.8491607600    8.1475971442    2.2154030145
     C     2.0137180624    6.8365096803    1.6465029322
     N     1.5672234493    6.7333580607    0.3944062086
     S     0.9962337933    8.1992205492   -0.0106805774
     N     1.2869458430    9.0121405912    1.3628970915
     C     2.1626980060    9.6999808303    4.2156168332
     C     3.1076524381   10.1218262660    5.1674070276
     C     2.9840292837   11.3347191988    5.8225129336
     C     1.8922003856   12.1820523832    5.5627029220
     C     0.9395623732   11.7646065051    4.6172409804
     C     1.0799410186   10.5575559357    3.9548703650
     N     1.7606145164   13.4083834059    6.2202517382
     C     1.1014124986   14.4964057139    5.5910394011
     C     0.1477824036   15.2395881082    6.2953299559
     C    -0.4871584311   16.3165179521    5.6845889160
     C    -0.1912387955   16.6557806008    4.3652165430
     C     0.7562397813   15.9128331366    3.6621011680
     C     1.4078230319   14.8448329113    4.2706348599
     C     2.2888495651   13.6001802172    7.5219615248
     C     2.9944028191   14.7707847589    7.8236927045
     C     3.4913738977   14.9755917941    9.1067843642
     C     3.3068971704   14.0133423623   10.0982776826
     C     2.6104634034   12.8438685274    9.7959278949
     C     2.0947727300   12.6384608088    8.5201987848
     C     2.8906266856   -0.7696858760   -1.6105683395
     O     2.3616830569   -0.2792216084   -2.5841625153
     O     3.2551378135   -2.0572230717   -1.6269111475
     H     2.3444276539    1.6600083660   -1.2811490122
     H     3.8949335670    1.3006814835    2.3798508470
     H     3.7687043593    3.5633896602    3.6742713579
     H     3.2184205540    7.4062838338    5.1995976995
     H     3.9828044533    9.5094839829    5.3667793168
     H     3.7489160355   11.6433635394    6.5277376751
     H     0.0767328805   12.3896293391    4.4110188057
     H     0.3189883298   10.2594816983    3.2419804170
     H    -0.0919807914   14.9681459526    7.3195466412
     H    -1.2269382093   16.8852433701    6.2418040022
     H    -0.6931384873   17.4934775949    3.8891198735
     H     1.0028612710   16.1736424247    2.6362482799
     H     2.1566988186   14.2762378994    3.7265487276
     H     3.1495919995   15.5166283703    7.0493272354
     H     4.0368531225   15.8894284031    9.3274731290
     H     3.7008366234   14.1736342717   11.0979610939
     H     2.4517117374   12.0896797226   10.5622444573
     H     1.5362934390   11.7347125977    8.2934593113
     H     3.6784615403   -2.3304856453   -0.7945701530
