68
-1.5849679638360531e+03 frame 76   xyz file generated by TeraChem
     N     2.3786435238    1.8703092810    2.8092502833
     C     3.4389858108    1.7693776287    2.3430606380
     C     4.7414793703    1.6464658862    1.7701157468
     C     5.8644314573    2.0849616587    2.4876364424
     C     7.1261945838    1.9662764965    1.9302891535
     C     7.2906761874    1.4078787274    0.6485722629
     C     6.1562733768    0.9714592736   -0.0616984876
     C     4.8928300837    1.0886165324    0.4917528355
     C     8.5844214341    1.2836414030    0.0774367800
     C     9.6916336681    1.1722450994   -0.4161439982
     C    10.9798091748    1.0353799831   -0.9969502060
     C    12.1252367904    1.4934605563   -0.3219149324
     C    13.3813288045    1.3539806212   -0.8896110855
     C    13.5370546236    0.7549404559   -2.1501823131
     C    12.3914991448    0.2973548004   -2.8228896864
     C    11.1357481842    0.4328749583   -2.2601806936
     C    14.8384618842    0.5826552552   -2.7787631869
     N    15.0643260284   -0.1219057716   -3.8764041109
     C    16.4096071036   -0.0458245663   -4.1226675320
     C    17.0237237848    0.7478367204   -3.1510205224
     N    16.0017709991    1.1098509355   -2.3085103954
     C    18.3875648739    1.2268947625   -2.9413097168
     C    19.2088712287    1.5973193397   -4.0166607764
     C    20.4934049217    2.0762937001   -3.8215427938
     C    21.0359591404    2.2122494780   -2.5227894671
     C    20.1975622554    1.8684099659   -1.4392105004
     C    18.9159507294    1.3830654236   -1.6513508212
     N    22.3244873206    2.6509537754   -2.3245495925
     C    22.7604694357    2.9916140300   -0.9876717698
     C    23.0761559214    3.1777328232   -3.4432124857
     C    16.9977433549   -0.7839548028   -5.2466019097
     C    16.2580947254   -0.9970902422   -6.4174727142
     C    16.7645853595   -1.7254615109   -7.4835690136
     C    18.0528309921   -2.3014980070   -7.4266511121
     C    18.8017827649   -2.0794232161   -6.2499661146
     C    18.2786935055   -1.3498308419   -5.1926439380
     N    18.5500577503   -3.0606177631   -8.4654107623
     C    19.9496234019   -3.4271503496   -8.4643088606
     C    17.8485733422   -3.0679419795   -9.7307569944
     H     5.7407783597    2.5157471645    3.4762025051
     H     7.9978681618    2.3037594292    2.4817279821
     H     6.2785866066    0.5400170214   -1.0499802585
     H     4.0201990365    0.7510721006   -0.0584167946
     H    12.0196796307    1.9555138630    0.6550366733
     H    14.2456316209    1.7051836684   -0.3325771380
     H    12.5085013323   -0.1677212073   -3.7964484247
     H    10.2589365007    0.0752848345   -2.7917534976
     H    16.1024489153    1.7511531915   -1.5339029889
     H    18.8265888552    1.5219900006   -5.0308581220
     H    21.0754571024    2.3602770572   -4.6909588267
     H    20.5504005801    1.9691338626   -0.4190623270
     H    18.3172933074    1.1060522266   -0.7859886238
     H    22.6870974353    2.1277065947   -0.3169742985
     H    22.1775015445    3.8155662441   -0.5477639671
     H    23.8085777010    3.2935631306   -1.0227997437
     H    23.1626996920    2.4326896773   -4.2419894289
     H    24.0858002151    3.4214360565   -3.1083013706
     H    22.6232831547    4.0859114764   -3.8702423138
     H    15.2597106116   -0.5742685361   -6.4925249071
     H    16.1502217344   -1.8455949065   -8.3690213554
     H    19.7997008471   -2.4916932524   -6.1511609111
     H    18.8825395501   -1.2248405159   -4.2980412737
     H    20.1997073483   -4.0205940548   -7.5776637211
     H    20.6196697010   -2.5530824223   -8.4890292002
     H    20.1559102373   -4.0425441317   -9.3417750647
     H    16.8290348465   -3.4519528268   -9.6116653597
     H    18.3717050330   -3.7305788904  -10.4224861972
     H    17.7856360982   -2.0681968768  -10.1885013140
