70
-1.5862167175870986e+03 frame 107   xyz file generated by TeraChem
     N    -2.9152597136   -0.3958773802   -0.2708759131
     C    -1.7656944556   -0.4902263095   -0.1209309133
     C    -0.3551563512   -0.6055761598    0.0623743200
     C     0.5212721711   -0.2147717662   -0.9634605489
     C     1.8881392228   -0.3273552343   -0.7849985839
     C     2.4263199131   -0.8296416120    0.4157828720
     C     1.5305441374   -1.2163389672    1.4296716849
     C     0.1594348737   -1.1092021029    1.2649656818
     C     3.8563238754   -0.9720992428    0.6622144338
     C     4.8504273169   -0.6258118242   -0.1817853671
     C     6.2808643501   -0.7661757955    0.0570833590
     C     6.8273721720   -1.3428659184    1.2198978401
     C     8.1949726980   -1.4467139720    1.3902146375
     C     9.0864277437   -0.9781541646    0.4083300706
     C     8.5504539820   -0.4013137871   -0.7520306298
     C     7.1772963011   -0.3027341422   -0.9202069457
     C    10.5191704833   -1.1082668403    0.6336892560
     N    11.0776990458   -1.5587330945    1.7464408961
     C    12.4336393907   -1.5127288717    1.5538980371
     C    12.7128259906   -1.0309237408    0.2736810146
     N    11.4788190645   -0.7701928515   -0.2703769631
     C    13.9345323642   -0.8311675789   -0.5025270101
     C    15.0097559110   -1.7299701864   -0.4310394931
     C    16.1494882545   -1.5653533398   -1.2001386562
     C    16.2710319552   -0.4873743255   -2.1077048772
     C    15.1916676134    0.4217980066   -2.1744980246
     C    14.0607759825    0.2466142542   -1.3919209513
     N    17.3856279413   -0.3358264785   -2.8944134568
     C    18.5291746047   -1.1981740945   -2.6937674559
     C    17.5286317806    0.8468063864   -3.7146135395
     C    13.3474604856   -1.9028446795    2.6335219195
     C    12.9657342431   -2.8799649866    3.5627232563
     C    13.7882347773   -3.2532399514    4.6152311735
     C    15.0593458351   -2.6642511814    4.7917570135
     C    15.4302971350   -1.6559379232    3.8752078556
     C    14.5943692128   -1.2935591250    2.8291223168
     N    15.9042583710   -3.0607018885    5.8084850650
     C    15.3919089415   -3.9180732668    6.8553397191
     C    17.0747346677   -2.2630085651    6.1028359324
     H     0.1211059483    0.1737175537   -1.8949645987
     H     2.5452276197   -0.0221446008   -1.5933606411
     H     1.9257584810   -1.6073708274    2.3637615376
     H    -0.5159642146   -1.4119923121    2.0592093516
     H     4.1062143903   -1.3988008101    1.6323261997
     H     4.5976696325   -0.1888102638   -1.1472760359
     H     6.1734201709   -1.7189857871    2.0014886180
     H     8.6016786388   -1.8961574137    2.2906960602
     H     9.2009378990   -0.0176964959   -1.5335537104
     H     6.7831244164    0.1484284650   -1.8279813307
     H    11.3312473069   -0.4717741072   -1.2245050470
     H    14.9470870464   -2.5834191870    0.2382535658
     H    16.9498241600   -2.2906269756   -1.1053041069
     H    15.2393663678    1.2788217674   -2.8367882965
     H    13.2616703662    0.9817175586   -1.4627139434
     H    18.2687180041   -2.2507258903   -2.8617004963
     H    18.9488829994   -1.1099794237   -1.6804398722
     H    19.3069059003   -0.9296469366   -3.4100621514
     H    17.5520124646    1.7711593672   -3.1180578838
     H    16.7065278672    0.9295842070   -4.4362802383
     H    18.4610920013    0.7795033692   -4.2767539389
     H    11.9939206860   -3.3549300227    3.4573256977
     H    13.4361608602   -4.0122542425    5.3049851772
     H    16.3770849869   -1.1388133592    3.9846873815
     H    14.9152005385   -0.5020217952    2.1572724930
     H    15.0201789063   -4.8616733572    6.4406222994
     H    14.5748923815   -3.4510073193    7.4275911797
     H    16.2029786895   -4.1582399139    7.5451717427
     H    16.8251907440   -1.2323367236    6.4005497459
     H    17.7446084336   -2.2119535924    5.2367084745
     H    17.6267040409   -2.7328914986    6.9188161762
