60
-1.3554270462110021e+03 frame 78   xyz file generated by TeraChem
     N    -2.8859055840   -0.4260990351    0.5424132139
     C    -1.7235820890   -0.4533055872    0.5820634394
     C    -0.2981757313   -0.4870711043    0.6304115412
     C     0.4103455635   -1.4108507571   -0.1562013867
     C     1.7919050777   -1.4419172963   -0.1092802284
     C     2.5123351233   -0.5594909966    0.7201765469
     C     1.7832339826    0.3615995093    1.4959489047
     C     0.3995692665    0.4029520170    1.4593610020
     C     3.9636476807   -0.5506421992    0.8125824051
     C     4.8113098042   -1.4139739813    0.2126305439
     C     6.2429482982   -1.3420216274    0.3454229651
     N     6.9431482724   -0.4574504846    1.0438643856
     C     8.2601757303   -0.7837150031    0.8780807542
     C     8.3739054475   -1.8994252141    0.0376307633
     N     7.0788860176   -2.2301437927   -0.2623157406
     C     9.4969612030   -2.6420415260   -0.5284289823
     C     9.4227072919   -4.0285614430   -0.7301636447
     C    10.4646122156   -4.7429077456   -1.3013208054
     C    11.6532409212   -4.0975591109   -1.7098066606
     C    11.7312894799   -2.7015428951   -1.4965263348
     C    10.6784736718   -2.0015956248   -0.9316043625
     N    12.6846760661   -4.7913012340   -2.2936204850
     C    12.6242902539   -6.2343542955   -2.3661692904
     C    13.9555514220   -4.1335830334   -2.5070041130
     C     9.3018392796   -0.0112808777    1.5647728279
     C    10.4974826607   -0.5801518279    2.0245847310
     C    11.4539279574    0.1683527450    2.6946874072
     C    11.2549985435    1.5418674684    2.9589876074
     C    10.0481305730    2.1141579520    2.4993077582
     C     9.1042605895    1.3508976287    1.8295729054
     N    12.1899871286    2.2853573122    3.6438899194
     C    13.4945596098    1.7177201909    3.9031625345
     C    12.0295336442    3.7198892832    3.7316704282
     H    -0.1317755724   -2.0959304174   -0.8007987821
     H     2.3194142944   -2.1589825969   -0.7305899157
     H     2.3216280088    1.0530744078    2.1389279809
     H    -0.1464865401    1.1186286057    2.0661686551
     H     4.3943214043    0.2298876861    1.4375642348
     H     4.4370214301   -2.2241147357   -0.4103923637
     H     6.7980373418   -2.9692329273   -0.8936688513
     H     8.5363398098   -4.5730040018   -0.4111562449
     H    10.3547798807   -5.8154395282   -1.4166483504
     H    12.6202963348   -2.1528306830   -1.7867438002
     H    10.7726516162   -0.9268382928   -0.8042846336
     H    12.5949798147   -6.7075538199   -1.3727081404
     H    13.5054707674   -6.6010320938   -2.8948556657
     H    11.7399011585   -6.5635481310   -2.9246303832
     H    14.4010419133   -3.7683232788   -1.5695421604
     H    13.8539618030   -3.2803670706   -3.1888929659
     H    14.6492841593   -4.8412839130   -2.9631313316
     H    10.6867918752   -1.6379020089    1.8629302176
     H    12.3603776770   -0.3266061321    3.0256117326
     H     9.8441425461    3.1670119132    2.6605673862
     H     8.1854038520    1.8233001048    1.4924470261
     H    14.0257951880    1.4387124263    2.9799226027
     H    13.4203543549    0.8232325566    4.5334714936
     H    14.1008637161    2.4498097901    4.4390110279
     H    11.0903055050    3.9807343405    4.2337585527
     H    12.0340680005    4.2093411927    2.7452699795
     H    12.8470455706    4.1338853439    4.3241938741
