116
-4.2438709327431516e+03 frame 221   xyz file generated by TeraChem
     O     0.3819590838   -0.4859245370   -2.2885867130
    Cl     1.4156814165   -0.2094672991   -1.2661858228
     O     1.7543399941   -1.4610365873   -0.5537231011
     O     2.6267790219    0.3269443105   -1.9250719995
     O     0.8982253021    0.7831695758   -0.2991257048
     O     4.1832672181    0.7174874152    1.3127930696
    Cl     5.0876246693    0.2139899515    2.3685733205
     O     6.4104013235   -0.0990777789    1.7800980109
     O     5.2477667849    1.2456279440    3.4163342934
     O     4.5133446668   -1.0126200718    2.9665282211
     C     9.7962644571   -0.0877760460    9.1983064148
     N     9.1715990224   -1.3819491303    8.9918485440
     C     8.8871032043   -1.8329072784    7.7307965084
     C     9.2208539679   -1.1364816345    6.5876540203
     C     8.9592724477   -1.4628776941    5.2292976557
     C     9.5554105936   -0.6757315315    4.2176621575
     C     9.4141869858   -0.9529902985    2.8800913098
     C    10.0663897818   -0.0577719017    1.8730372881
     N     8.6679821640   -2.0333971445    2.4769995598
     C     7.9551575037   -2.7444117502    3.4064644218
     C     8.1070440076   -2.4832476504    4.7505646631
     C     6.9474171028   -3.7640053282    2.9727107834
     C     8.5893338806   -2.3903507475    1.0436693056
     C     9.9021372086   -2.8803915991    0.4228189154
     C    10.6336238752   -4.0153540745    1.1416517596
     C     9.9879922452   -5.3921402832    1.0043980759
     C    10.8424497084   -6.5360742572    1.5569347918
     C    11.2467423404   -6.4045140919    3.0284859662
     C    10.0867307259   -6.2247958688    4.0103596654
     C     9.0467314522   -7.3470866580    4.0028036659
     C     9.5896500899   -8.7432122481    4.3186363125
     C    10.3288550731   -8.8708969230    5.6530891355
     C     9.5290055881   -8.4860647037    6.8989502751
     C     8.3294374789   -9.4036174133    7.1309763600
     N     7.6841373202   -9.1554908195    8.4324947817
     C     8.1504157263   -9.7981050086    9.5508235479
     C     9.1887123971  -10.8665317267    9.4085881422
     C     7.6388391385   -9.4911901176   10.7885956792
     C     6.6271653542   -8.5177061017   10.9639456128
     C     6.1353722021   -7.9428432851    9.7674421384
     C     6.6626403988   -8.2449449106    8.5353966106
     C     6.1204937110   -7.5980788202    7.2998304296
     C     6.0245364546   -8.1811559234   12.2062935349
     C     6.4671718315   -8.4532254332   13.4896584974
     S     5.3114553430   -8.6046141086   14.8076752364
     C     6.5927945690   -8.9308259573   15.9517687275
     C     7.8351789595   -8.9235030491   15.3058884657
     N     7.7417238315   -8.6085801916   13.9497721612
     C     8.9113469674   -8.1328832399   13.2257600457
     C     9.0046325474   -9.1821394113   16.0179933941
     C     8.9003860222   -9.4405381469   17.3820668742
     C     7.6599580707   -9.4406033271   18.0255612345
     C     6.4901216935   -9.1829108253   17.3144303551
     S     8.1109203842   -3.4065487619    7.8113894824
     C     8.2105637135   -3.4157363398    9.5585121222
     C     8.8209626562   -2.2442737781   10.0244575305
     C     9.0043064084   -2.0584687883   11.3958080375
     C     8.5594308651   -3.0502224944   12.2652160047
     C     7.9445278368   -4.2121953138   11.7924153165
     C     7.7659337728   -4.4057141832   10.4250705717
     H    10.8193471405   -0.0886576940    8.8089751083
     H     9.8223141411    0.1370504749   10.2624480173
     H     9.2154367031    0.6878009511    8.6914476099
     H     9.7986254151   -0.2307288252    6.7395942288
     H    10.1591411117    0.1828288751    4.4945900095
     H    10.2588996580    0.9102934859    2.3400463530
     H     9.4398480482    0.1046616942    0.9929595785
     H    11.0284112331   -0.4591604100    1.5387450005
     H     7.4915653487   -3.0670802464    5.4229706851
     H     7.3861742726   -4.5857714172    2.4005762604
     H     6.1676794487   -3.2957523470    2.3620628452
     H     6.4729458421   -4.1923511346    3.8574023019
     H     8.2158573759   -1.5159535350    0.5048015389
     H     7.8250079187   -3.1563135101    0.9475469393
     H    10.5865441413   -2.0376499182    0.2987387713
     H     9.6399901614   -3.1994005695   -0.5950373637
     H    10.7615150761   -3.7592181802    2.2021389990
     H    11.6489951269   -4.0671014103    0.7248450710
     H     9.7921260509   -5.5860370415   -0.0596092277
     H     9.0071272401   -5.4050592344    1.4953118729
     H    11.7572431664   -6.6179122801    0.9527951825
     H    10.2985024358   -7.4789458059    1.4098109803
     H    11.9333873076   -5.5549104741    3.1417257267
     H    11.8269715860   -7.2940656282    3.3086420214
     H     9.5758485123   -5.2764168848    3.7981107084
     H    10.5010016532   -6.1140320058    5.0218838024
     H     8.5558807000   -7.3837683834    3.0208576006
     H     8.2525499944   -7.0918300686    4.7180128129
     H    10.2770334623   -9.0557128043    3.5213608712
     H     8.7558579817   -9.4581151168    4.2862142076
     H    11.2346449525   -8.2516841790    5.6298867761
     H    10.6770689863   -9.9070063979    5.7661691802
     H     9.1872920911   -7.4458833013    6.8327571240
     H    10.1919612107   -8.5346330837    7.7717426962
     H     8.6359583321  -10.4503943080    7.1029891883
     H     7.5770629436   -9.2819111406    6.3521347077
     H    10.0907163009  -10.5057573504    8.9049535623
     H     8.8037010135  -11.7190362040    8.8368588492
     H     9.4719724946  -11.2236926223   10.4000818836
     H     7.9991329129  -10.0682994450   11.6313792826
     H     5.3253637694   -7.2217659821    9.8124227709
     H     5.3637857191   -6.8647536340    7.5834486788
     H     5.6490544068   -8.3357859009    6.6398302488
     H     6.8972044208   -7.0831810387    6.7259317552
     H     5.0290268590   -7.7483328472   12.1446905631
     H     9.5383209603   -7.5662342012   13.9184849985
     H     8.5844366538   -7.4704814927   12.4235854676
     H     9.4945996856   -8.9565193523   12.8053253691
     H     9.9702919486   -9.1933384925   15.5228508470
     H     9.8019553014   -9.6488297717   17.9506035265
     H     7.6028622522   -9.6463418777   19.0902690568
     H     5.5230681120   -9.1817106678   17.8078320997
     H     9.4818223156   -1.1675162190   11.7888518872
     H     8.6973962370   -2.9107237372   13.3334412117
     H     7.6018539755   -4.9712636729   12.4893187932
     H     7.2945155794   -5.3060129877   10.0422601870
