49
-1.1940724149784951e+03 frame 40   xyz file generated by TeraChem
     N     1.1840571911   -1.2475479221   -3.4388152163
     C     0.2237954397   -0.7795940654   -2.5434210036
     C    -0.0765306950    0.5862594317   -2.4484216977
     C    -1.0772282315    1.0537277559   -1.6040519962
     C    -1.8295605340    0.1605128508   -0.8333185610
     C    -1.5299075038   -1.2046597820   -0.9205164445
     C    -0.5210495747   -1.6674012185   -1.7535308096
     N    -2.8282281846    0.5514159979    0.0743162026
     C    -3.6401045878    1.6432289177    0.0917076749
     N    -3.5315180814    2.5643597968   -0.8667909036
     C    -4.3931606209    3.5913695575   -0.7362402049
     N    -5.2916874516    3.7347025301    0.2469948002
     C    -5.3045215501    2.7358430536    1.1454194411
     N    -4.5024574980    1.6614655914    1.1210705197
     N    -6.2115159123    2.8138076439    2.1523858331
     C    -6.2849757282    1.8331435022    3.2196606894
     C    -7.7378994913    1.4476059350    3.4529796353
     O    -8.5387897080    2.5855892979    3.7142846313
     C    -8.4969150668    3.4840209550    2.6209780506
     C    -7.0794134652    3.9599272634    2.3437435428
     N    -4.3357975632    4.5676826300   -1.6778411944
     C    -3.5138726276    4.4573110827   -2.8697028606
     C    -2.8452489325    5.7929670837   -3.1507507040
     O    -3.7975083063    6.8357996800   -3.2504686841
     C    -4.5249494387    6.9594113462   -2.0426160760
     C    -5.2713931060    5.6772948187   -1.7084242870
     H     1.9069073996   -0.5725308175   -3.6575857189
     H     1.5986668740   -2.1320154882   -3.1709185984
     H     0.4929382755    1.2987449706   -3.0417600273
     H    -1.2776637758    2.1157193053   -1.5407592034
     H    -2.0965993967   -1.9146983568   -0.3214573939
     H    -0.3099815924   -2.7335649764   -1.7998511683
     H    -3.0636063107   -0.1200167396    0.7933443617
     H    -5.8701177379    2.2649174063    4.1429879116
     H    -5.6904676903    0.9613688619    2.9459185742
     H    -7.8215649988    0.7951706994    4.3269751694
     H    -8.1245073610    0.9119399351    2.5708617523
     H    -9.1364087374    4.3317167395    2.8835791701
     H    -8.9048464671    2.9972760040    1.7200463611
     H    -6.7205894989    4.5547344186    3.1973775937
     H    -7.0515763910    4.5832969717    1.4498338561
     H    -4.1477704307    4.1805962051   -3.7259057411
     H    -2.7691319920    3.6749105947   -2.7231046971
     H    -2.3141447342    5.7567687388   -4.1062273894
     H    -2.1225761626    6.0210084994   -2.3504263978
     H    -5.2312617032    7.7829458880   -2.1815825915
     H    -3.8404305235    7.2132461740   -1.2169372709
     H    -6.0400742458    5.4908801057   -2.4739364231
     H    -5.7617299097    5.7583604501   -0.7381919231
