43
-1.1722496040968986e+03 frame 295   xyz file generated by TeraChem
     C     2.8592048094    1.9769350242    4.5205935853
     C     3.0613397244    0.6079726159    4.8615839383
     C     2.9460332568   -0.1614292974    3.6669472084
     C     2.6696566006    0.7337209946    2.5916760643
     C     2.6116477749    2.0567426413    3.1186892917
    Br     4.1644161551   -0.1884249855  -10.5817187688
     C     4.4804561945   -0.4354040846   -8.6706252419
     C     4.7178511310   -1.7197478706   -8.1917394897
     C     4.9459597283   -1.9257348127   -6.8271347048
     C     4.9297056492   -0.8293135086   -5.9772458817
     C     4.6889507001    0.4553595819   -6.4925419434
     C     4.4601504402    0.6817181588   -7.8382231394
     C     4.7288930615    1.4428910564   -5.3713624725
     O     4.5678380022    2.6456321214   -5.4439529172
     C     5.0102797551    0.6319572931   -4.1507617181
     C     5.1285474080   -0.7197588741   -4.5201837295
     C     5.3902537615   -1.6801224162   -3.5535505863
     C     5.5304680842   -1.2715005343   -2.2273816060
     C     5.4136971757    0.0814657664   -1.8527077617
     C     5.1473489702    1.0505373259   -2.8429823599
     C     5.5660951324    0.4571754254   -0.4900575507
     C     5.6983820624    0.7607034799    0.6807363915
     C     5.8922475443    1.0956453818    2.0433231416
     C     5.8521611758    2.4131258818    2.6195822065
     C     6.1019176287    2.2884700805    4.0126081962
     C     6.2845612649    0.9070160794    4.3139235700
     C     6.1540076055    0.1671191649    3.1096096714
    Fe     4.4409056256    1.2169449849    3.4760138329
     H     2.9230188889    2.8157437020    5.2026775302
     H     3.3103687496    0.2270103492    5.8441311399
     H     3.0860963190   -1.2319813535    3.5827397981
     H     2.5770470189    0.4613326215    1.5472744439
     H     2.4552891965    2.9642182776    2.5492197387
     H     4.7242600854   -2.5595443871   -8.8782594706
     H     5.1301032505   -2.9304731661   -6.4575583315
     H     4.2727668968    1.6801183088   -8.2203039119
     H     5.4867123020   -2.7314376317   -3.8101517334
     H     5.7356219285   -2.0091849994   -1.4573301448
     H     5.0526925740    2.0998479052   -2.5790089664
     H     5.6479688701    3.3268597155    2.0767180296
     H     6.1069154327    3.1001055830    4.7291454491
     H     6.4507320768    0.4885016923    5.2985740489
     H     6.2094142475   -0.9082310689    3.0011313748
