53
-1.4030396054898920e+03 frame 428   xyz file generated by TeraChem
     C     4.7161430274    5.6250517374    2.8303103219
     C     3.9922080122    5.3435395792    4.0240785330
     C     3.3257089030    4.0951065126    3.8560444429
     C     3.6431652812    3.6013271437    2.5573549176
     C     4.5051627500    4.5455525949    1.9244915510
    Br     7.9519290396   -5.5847935772  -11.7400874631
     C     7.6740060882   -5.1786976014   -9.8510038172
     C     7.2567073346   -6.1970659658   -9.0002528209
     C     7.0499724178   -5.9313304303   -7.6422560869
     C     7.2691700814   -4.6435596020   -7.1751244004
     C     7.6909865228   -3.6373539657   -8.0605627902
     C     7.9019057658   -3.8781546159   -9.4069268739
     C     7.8507254056   -2.3598885871   -7.3019353197
     O     8.2081813331   -1.2825718368   -7.7371047912
     C     7.4811818957   -2.6962138596   -5.8958604869
     C     7.1396510408   -4.0589831409   -5.8278157213
     C     6.7605843222   -4.6174596680   -4.6153482530
     C     6.7255765162   -3.7996716892   -3.4859002274
     C     7.0629328736   -2.4335841786   -3.5504251275
     C     7.4503846497   -1.8757593818   -4.7874819645
     C     7.0104343386   -1.6252032507   -2.3829588172
     C     6.9618408228   -0.9291574923   -1.3856216666
     C     6.9008957565   -0.1126198558   -0.2239970774
     C     7.2278136702    1.2545217544   -0.2895031201
     C     7.1597174089    2.0485446537    0.8431026645
     C     6.7683304422    1.5171529841    2.0824571248
     C     6.4518777112    0.1518043574    2.1437854551
     C     6.5113646513   -0.6509865525    1.0143328323
     C     6.7091997297    2.3594155459    3.2835383790
     C     7.3676235620    3.6206296463    3.4698279066
     C     7.0431121407    4.1065238096    4.7660774247
     C     6.1788389311    3.1601006092    5.3897213653
     C     5.9743809861    2.0852283289    4.4819748633
    Fe     5.3481416810    3.8533494340    3.6514446223
     H     5.3589488119    6.4804272630    2.6633387282
     H     3.9860372521    5.9506634357    4.9208716467
     H     2.7258649228    3.5883605985    4.6016832046
     H     3.3245263862    2.6534516576    2.1412297735
     H     4.9563478470    4.4364163697    0.9460945822
     H     7.0934130495   -7.1960930919   -9.3903016987
     H     6.7247309246   -6.7298727742   -6.9814525576
     H     8.2288569951   -3.0899834424  -10.0775634144
     H     6.4931049378   -5.6673034123   -4.5342298147
     H     6.4299059594   -4.2185519032   -2.5286561876
     H     7.7156852876   -0.8250093988   -4.8598380029
     H     7.5287658964    1.6856792422   -1.2398766635
     H     7.3980310739    3.1053640511    0.7665687656
     H     6.1651659533   -0.2913262523    3.0933078130
     H     6.2625083194   -1.7060018537    1.0828206682
     H     7.9927737822    4.1253890640    2.7442793733
     H     7.3636620077    5.0510874442    5.1875371214
     H     5.7186887306    3.2640688638    6.3643152181
     H     5.3234214941    1.2358500755    4.6468485856
