43
-1.3181443108218696e+03 frame 42   xyz file generated by TeraChem
     C     6.3385734632   -0.6803262530    2.6909851482
     O     5.5939383899   -0.4438327179    1.4896596840
     C     5.9119260261   -1.2131629034    0.4508076912
     O     6.7667617605   -2.0701690995    0.4637922778
     C     5.0506195667   -0.8544436237   -0.7434813347
     N     5.3561846089   -1.6794582866   -1.8883154175
     C     6.3722490148   -1.2448535474   -2.7343267544
     O     6.9634490315   -0.1972127611   -2.5040922661
     C     6.6733752872   -2.0936938483   -3.9002740274
     C     7.6244545653   -1.6724339863   -4.8116559093
     C     7.9131541204   -2.4553042665   -5.9371906461
     C     7.2706146116   -3.6626410965   -6.1265303197
     C     6.3196346335   -4.1427146862   -5.1980226439
     C     5.9978824923   -3.3246096929   -4.0781277634
     C     5.0103545915   -3.7310131612   -3.1508903751
     C     4.6784875472   -2.9009555164   -1.9972841645
     O     3.8522892491   -3.2147591360   -1.1476204330
     C     4.3655053460   -4.9441015397   -3.3392264527
     C     4.6746204442   -5.7746833249   -4.4132034354
     C     5.6505816754   -5.4121990749   -5.3432546158
     N     6.0280271657   -6.2354036599   -6.3732120208
     C     5.3903877161   -7.3834146860   -6.8544348237
     C     6.1883932007   -8.4278508234   -7.3414984636
     C     5.5986285233   -9.5627862478   -7.8850383822
     C     4.2127601585   -9.6901460211   -7.9494818232
     C     3.4480961133   -8.6371942802   -7.4703069084
     C     3.9959199910   -7.4834354993   -6.9337888717
     F     2.1081268008   -8.7249086568   -7.5484593081
     H     5.9600078839    0.0383046512    3.4168717579
     H     7.4046629589   -0.5204874456    2.5139695096
     H     6.1741095968   -1.7015924585    3.0424228638
     H     5.2216458510    0.1921190166   -1.0027757024
     H     4.0005067219   -0.9892595418   -0.4781645820
     H     8.1278123047   -0.7246954236   -4.6484721399
     H     8.6374310420   -2.1080517254   -6.6673965557
     H     7.4943043798   -4.2302624364   -7.0247137307
     H     3.6207314184   -5.2589038413   -2.6144254603
     H     4.1825162280   -6.7366648386   -4.4951841630
     H     6.9684863235   -6.1109500841   -6.7213962937
     H     7.2704487606   -8.3430519379   -7.2851266278
     H     6.2285743662  -10.3660221277   -8.2563117684
     H     3.7316448601  -10.5711844783   -8.3608842903
     H     3.3424420698   -6.6780939690   -6.6173857531
