41
-1.2510515195641988e+03 frame 41   xyz file generated by TeraChem
     C     5.6489160186   -0.7070059426    2.1884073536
     O     4.8713769612   -0.5099365325    1.0008672132
     C     5.3187014303    0.4226618749    0.1629511232
     O     6.3162657095    1.0850510376    0.3392001808
     C     4.3932527184    0.5355500404   -1.0312841285
     N     4.8862612104    1.4878509216   -1.9989119292
     C     4.4614360412    2.8089191838   -1.8769719585
     O     3.6934446839    3.1317141788   -0.9807798556
     C     4.9645627582    3.7625017440   -2.8822303072
     C     4.5203842428    5.0709383994   -2.8501396889
     C     4.9671190402    5.9891859078   -3.8113202293
     C     5.8684437141    5.5991470684   -4.7803784862
     C     6.3688637098    4.2771484146   -4.8244934962
     C     5.8879037229    3.3392217456   -3.8675615095
     C     6.3199599991    1.9931789789   -3.9022102888
     C     5.8261094034    1.0222545976   -2.9245929612
     O     6.1832498482   -0.1487853629   -2.8908336280
     C     7.2313194278    1.5968909805   -4.8654553091
     C     7.7342189307    2.5014059125   -5.8013224615
     C     7.3251464108    3.8312005939   -5.8015251883
     N     7.8370172119    4.7586405253   -6.6877118231
     C     8.4409123195    4.5575105605   -7.9148029516
     C     8.1899582109    3.4453048380   -8.7422894039
     N     8.7684255185    3.3234536524   -9.9292782736
     C     9.5913385486    4.3039728420  -10.3172637166
     C     9.8060339114    5.4187692077   -9.5156136637
     N     9.2379173447    5.5512208148   -8.3176789879
     H     5.1400234160   -1.4934050693    2.7444830686
     H     5.6846070511    0.2144199487    2.7741414244
     H     6.6641593586   -1.0168321833    1.9297779459
     H     3.4097046815    0.8614479295   -0.6872389293
     H     4.2982830030   -0.4429668369   -1.5051246684
     H     3.8133611689    5.3692886731   -2.0824049228
     H     4.5944659311    7.0086733024   -3.7986690753
     H     6.1724070587    6.3240661606   -5.5294814042
     H     7.5759303582    0.5673757489   -4.8729339507
     H     8.4889106514    2.1662606838   -6.5038913337
     H     7.9343374316    5.7110480550   -6.3571261534
     H     7.4952847535    2.6651194415   -8.4444737780
     H    10.0699396726    4.2058689906  -11.2878596675
     H    10.4514233183    6.2299449331   -9.8454479294
