41
-1.5197909337364231e+03 frame 52   xyz file generated by TeraChem
     C     1.2677171161    1.6153208064    0.1724572118
     O     2.6617753569    1.3688419391   -0.0268081083
     C     3.4752417796    1.8487063370    0.9243600551
     O     3.0726467209    2.4634224611    1.8924863360
     C     4.8805475923    1.5385906202    0.6362073147
     C     5.4357400614    0.8727725107   -0.5005651568
     C     4.7588222752    0.2791429795   -1.6866228166
     N     6.7484780852    0.8239107054   -0.4036150461
     N     7.0622797299    1.4384754826    0.7658858033
     C     5.9600512253    1.8926026968    1.4360634601
     C     5.9949827530    2.5888760923    2.7309485809
     C     5.5161189788    1.9603861622    3.8818047359
     C     5.5260923136    2.6136456188    5.1099076712
     C     6.0108609100    3.9184559495    5.1847606609
     C     6.4805299132    4.5651744871    4.0455887165
     C     6.4747252517    3.9052304540    2.8162902222
     O     6.9133297664    4.4818251120    1.6734816773
     C     8.4081513561    1.4571626298    1.1174579936
     N     8.8823979019    1.9487109668    2.2079562128
     C    10.2566240775    1.7945372158    2.2326983715
     C    10.8129241028    1.1542454046    1.1040541137
     S     9.5421908221    0.7378985850   -0.0174423232
     C    12.1837079517    0.9320753113    0.9921617081
     C    12.9990960222    1.3636419260    2.0325775830
     C    12.4589973091    2.0022213489    3.1587974902
     C    11.0934102414    2.2219043167    3.2693452870
     H     0.7668891603    1.1692877820   -0.6862940762
     H     1.0700451179    2.6892342147    0.2144047835
     H     0.9259269178    1.1474068241    1.0990541239
     H     4.2056998420    1.0418777724   -2.2432811244
     H     4.0363959665   -0.4828936258   -1.3806237307
     H     5.5050438325   -0.1733586382   -2.3440714035
     H     5.1357636584    0.9457638453    3.8029480075
     H     5.1577571295    2.1098016065    5.9984128824
     H     6.0224920267    4.4432460193    6.1363509586
     H     6.8552940677    5.5851806903    4.1000839692
     H     7.2256277934    5.3799672021    1.8647644549
     H    12.6038509987    0.4385106780    0.1209221038
     H    14.0715707789    1.2026418379    1.9690482573
     H    13.1205347787    2.3292382769    3.9560199661
     H    10.6646755831    2.7160023517    4.1362909591
