45
-1.4682977459431067e+03 frame 69   xyz file generated by TeraChem
     C     1.2076086237    2.8434790648    1.0775591459
     O     2.6211278288    2.6974109602    0.8932277792
     C     2.9989864490    1.5884902508    0.2656982194
     O     2.2257938551    0.7343455043   -0.1340569004
     C     4.4441744357    1.4499040700    0.0740699430
     N     5.4529630748    2.3181913392    0.4576814891
     N     5.2652888028    3.4674710862    1.1051086185
     C     6.3573881925    4.1594953037    1.3835780982
     C     6.1606353615    5.3830075935    2.0828753421
     C     6.0226243180    6.4271072196    2.6887819338
     C     5.8376552184    7.6421580789    3.4031180020
     C     4.5531818893    8.0151939626    3.8379844630
     C     4.3651325088    9.1954399762    4.5422603499
     C     5.4688624706    9.9962059858    4.8055589240
     C     6.7504466188    9.6610086744    4.3890439199
     C     6.9322123559    8.4783867746    3.6855976461
     F     5.2868475068   11.1341343194    5.4920126429
     C     7.6748136851    3.7388591915    1.0287366825
     C     7.8314054370    2.5544046759    0.3692409819
     C     6.6806166837    1.8034213789    0.0673092371
     C     6.4431744126    0.5792038255   -0.5770484582
     C     5.0518707058    0.3744580212   -0.5638101560
     C     4.3293756374   -0.8248689675   -1.0869702689
     O     4.1361603115   -1.8270908909   -0.4373249309
     O     3.9652874351   -0.6513624216   -2.3523823085
     C     3.2872209603   -1.7611680488   -2.9549865073
     C     7.4932017821   -0.2714412363   -1.1328094750
     O     8.6852386872   -0.0276691336   -1.0729801296
     O     6.9890192610   -1.3634148558   -1.7188741128
     C     7.9452659241   -2.2814458734   -2.2568648860
     H     1.0797620432    3.8028235512    1.5773202367
     H     0.8198500410    2.0327227201    1.6989258424
     H     0.6959768924    2.8415675758    0.1124423799
     H     3.7058564085    7.3721774141    3.6213750627
     H     3.3820766106    9.4990310515    4.8877328686
     H     7.5833148649   10.3184152398    4.6171606876
     H     7.9251432407    8.1944219357    3.3510617933
     H     8.5207374758    4.3637505380    1.2908248843
     H     8.7997087486    2.1707629946    0.0714848428
     H     3.0608872740   -1.4468386980   -3.9729999011
     H     2.3678271265   -1.9839282041   -2.4084140467
     H     3.9347534075   -2.6411587342   -2.9597716565
     H     7.3612363391   -3.1153313622   -2.6445710412
     H     8.6273515567   -2.6224425934   -1.4745183256
     H     8.5159690902   -1.8092609597   -3.0603687879
