47
-1.2515141371947338e+03 frame 95   xyz file generated by TeraChem
     C     5.8692014215    0.1034193893   -0.0377852967
     O     4.7029749447    0.3188674087   -0.8123091717
     C     4.4732591917   -0.5206613555   -1.8535415576
     C     5.3025067902   -1.5914533111   -2.2021698849
     C     4.9663615660   -2.3964921107   -3.2886439845
     C     3.8152873257   -2.1624713437   -4.0411154239
     C     2.9948781478   -1.0903682611   -3.6760618399
     C     3.3158255479   -0.2736028255   -2.6003356483
     C     3.4719432900   -3.0206714134   -5.2364614148
     N     3.5943752424   -4.4360003778   -4.9521629260
     C     4.2772490206   -5.3613392344   -5.6466398496
     N     4.1942395981   -6.6303821428   -5.1902882222
     C     4.8538644917   -7.5988539116   -5.8271229015
     N     5.6271235435   -7.5139551423   -6.9085312303
     C     5.6954090886   -6.2532021690   -7.3486016340
     C     5.0696454561   -5.1223536366   -6.7994611840
     N     5.3727664113   -3.9993173377   -7.5288095914
     C     6.1634186664   -4.4258516344   -8.4988695948
     N     6.3828219501   -5.7813791828   -8.4257068867
     C     6.7583119321   -3.6256961185   -9.5452220414
     C     6.5821284822   -2.2931558417   -9.6383037169
     C     7.1392914949   -1.4147323726  -10.6589076187
     C     7.9171410735   -1.8774972534  -11.7368392918
     C     8.4245365328   -0.9984259945  -12.6766214230
     C     8.1628361706    0.3766136777  -12.5607535695
     C     7.3879254393    0.8568995804  -11.4965506864
     C     6.8858562270   -0.0352000593  -10.5625359191
     C     8.6868720166    1.2847397325  -13.5299777330
     N     9.1154564581    2.0231924955  -14.3195304748
     H     5.8666970298    0.8769903769    0.7316241251
     H     6.7765896851    0.1983319003   -0.6464795816
     H     5.8548894753   -0.8841168541    0.4388532905
     H     6.2037094717   -1.8054102110   -1.6379273142
     H     5.6161011559   -3.2291523491   -3.5483558534
     H     2.0872352867   -0.8925900963   -4.2427266586
     H     2.6755507337    0.5567742195   -2.3158911324
     H     4.1304100575   -2.7953784852   -6.0795705717
     H     2.4468608131   -2.7981411564   -5.5613930070
     H     3.0733283422   -4.8015399608   -4.1640880484
     H     4.7410045302   -8.5948321982   -5.4007210781
     H     6.9513000285   -6.3302418756   -9.0582751536
     H     7.3670407951   -4.1710060958  -10.2626200902
     H     5.9685128071   -1.8069253784   -8.8815336330
     H     8.1273463432   -2.9366989349  -11.8475083777
     H     9.0229626110   -1.3667236201  -13.5040545382
     H     7.1850520267    1.9196005004  -11.4081721005
     H     6.2851025015    0.3375154116   -9.7371619035
