48
-1.0352955150754296e+03 frame 70   xyz file generated by TeraChem
     C     1.6072849250    0.8435199427    1.0091090125
     O     1.8438923841    2.2227719326    0.7854688813
     C     2.5064471687    2.5755326403   -0.3422959789
     C     2.9675277034    1.6743654447   -1.3094747800
     C     3.6370776381    2.1475479746   -2.4323852145
     C     3.8703911656    3.5165748252   -2.6338004287
     C     3.3974551027    4.4002803094   -1.6457094234
     C     2.7283796259    3.9462314455   -0.5217013612
     C     4.5658373811    4.0651390673   -3.7953784407
     C     5.0721697448    3.3785702170   -4.8385880817
     C     5.7651061615    3.9412823952   -5.9967214902
     C     6.2844096640    3.0694023342   -6.9718191860
     C     6.9555901653    3.5426623054   -8.0887740839
     C     7.1304424801    4.9162709238   -8.2719356867
     C     6.6191720631    5.8192147228   -7.3175910877
     C     5.9476054718    5.3130036905   -6.2035231153
     C     6.7920113514    7.2658830464   -7.5067625984
     N     6.3386787390    8.1209040021   -6.6771217937
     C     6.5662346074    9.5192015341   -6.9671595375
     C     7.3125839236   10.1712211000   -5.8032095407
     N     7.5671343301   11.5882233442   -6.0156262418
     C     6.3548673323   12.3824124572   -5.9145118735
     C     8.5567289689   12.0711578406   -5.0686842623
     O     7.7768808440    5.4250603211   -9.3466071050
     H     1.0751865781    0.7810027930    1.9593690379
     H     2.5476905997    0.2840935257    1.0798286026
     H     0.9869419368    0.4115517607    0.2147404039
     H     2.8099882963    0.6070788034   -1.1965992194
     H     3.9831830144    1.4236390104   -3.1653581765
     H     3.5615962053    5.4686900149   -1.7695405164
     H     2.3677653049    4.6388105019    0.2337595285
     H     4.6670928764    5.1504269287   -3.7827226061
     H     4.9796178734    2.2926450134   -4.8546468426
     H     6.1577394039    1.9963850932   -6.8458943399
     H     7.3492847548    2.8501314056   -8.8298013145
     H     5.5634161094    6.0379345773   -5.4918973427
     H     7.3327914944    7.5736700401   -8.4110429596
     H     5.5833845432    9.9932064333   -7.0892151859
     H     7.1323848567    9.6774901619   -7.8996736396
     H     8.2812506391    9.6673613811   -5.6999479419
     H     6.7525875509    9.9885755971   -4.8650137539
     H     5.6301900885   12.0827871446   -6.6770116973
     H     6.5965532084   13.4376386032   -6.0797480939
     H     5.8694038820   12.2918667206   -4.9233893006
     H     9.4869921731   11.5038611174   -5.1796584844
     H     8.2243016195   11.9839158164   -4.0163246130
     H     8.7717081942   13.1268171349   -5.2674762911
     H     8.0826188663    4.6981594551   -9.9116115813
