49
-1.4961006777501498e+03 frame 53   xyz file generated by TeraChem
     C     0.2004366346   -1.1855099754    0.2386951171
     O     1.5537842075   -0.7676394085    0.2605599772
     C     2.4256186476   -1.4917105102    1.0061451113
     C     2.0782457639   -2.6137877363    1.7658815805
     C     3.0613601434   -3.2819711313    2.4924816326
     C     4.3920140522   -2.8611192110    2.4806323073
     C     4.7219588546   -1.7400053986    1.7128749171
     C     3.7558520100   -1.0575848616    0.9864916206
     C     5.4445854782   -3.5837482969    3.2829306897
     N     5.4836380173   -4.9973492917    2.9624526490
     C     5.7507810755   -5.9766370866    3.8429954570
     N     5.9734273570   -5.6839502707    5.1369276516
     C     6.2155070823   -6.6881168808    5.9896645714
     N     6.2827599843   -7.9955700862    5.7513048511
     C     6.0611699205   -8.2627617030    4.4570093176
     C     5.7928138836   -7.3350547516    3.4470352426
     N     5.6068301161   -7.9502285966    2.2389376161
     C     5.7585930535   -9.2401097592    2.4978287369
     N     6.0356771160   -9.4717704726    3.8267030822
     C     5.6459306759  -10.3299077233    1.5543035371
     C     5.3848099661  -10.1389709155    0.2468039051
     C     5.2256962884  -11.1737665298   -0.7691934583
     C     5.2625872943  -12.5492351504   -0.4848823891
     C     5.0877773874  -13.4890971383   -1.4904937334
     C     4.8715362502  -13.0723608133   -2.8041219132
     C     4.8350815873  -11.7112853251   -3.1090561289
     C     5.0098242316  -10.7760366536   -2.1001900178
     C     4.6765116680  -14.0633999772   -3.9087543567
     F     4.6409692218  -15.3306323178   -3.4637722271
     F     3.5277278643  -13.8417773924   -4.5790148597
     F     5.6639022405  -13.9967406786   -4.8255226787
     H    -0.3193711619   -0.4853053912   -0.4168727059
     H    -0.2465213540   -1.1473861962    1.2394259821
     H     0.1024946441   -2.2015450569   -0.1624567395
     H     1.0548148124   -2.9716336100    1.7996848478
     H     2.7806914766   -4.1540025464    3.0791312186
     H     5.7534929219   -1.3955032861    1.6819957888
     H     4.0141394103   -0.1880393908    0.3885866315
     H     5.2444371706   -3.5087000307    4.3563016959
     H     6.4251567316   -3.1201938834    3.1072202827
     H     5.3931647612   -5.2660736377    1.9917984265
     H     6.3836345052   -6.3854906270    7.0223790106
     H     6.1885040676  -10.3752455499    4.2569883748
     H     5.7792986556  -11.3272320380    1.9670212111
     H     5.2731259406   -9.1138559840   -0.1036911172
     H     5.4218450906  -12.8947425838    0.5321158564
     H     5.1131496740  -14.5474702037   -1.2526167540
     H     4.6644532565  -11.3844042273   -4.1310757491
     H     4.9767682810   -9.7158726264   -2.3382971969
