51
-1.7304800093485633e+03 frame 95   xyz file generated by TeraChem
     C     0.7622742686   -0.7715144805    2.6284131031
     O     1.5577261059   -0.5470888662    1.4774351926
     C     2.8207156692   -1.0445958438    1.4774732145
     C     3.3772417356   -1.7890654218    2.5222570928
     C     4.6814416235   -2.2663149545    2.4072359015
     C     5.4514167559   -2.0195548847    1.2703517827
     C     4.8829060477   -1.2648364131    0.2393628864
     C     3.5862925373   -0.7788552637    0.3364397225
     C     6.8586434810   -2.5656847334    1.1501199729
     C     6.9224636501   -4.0466388245    1.2827154461
     N     7.6352373078   -4.7402631275    2.1446028619
     N     7.4160181202   -6.0918376931    1.9567221055
     C     6.5593193865   -6.1719790598    0.9728950199
     N     6.2203551629   -4.9320237343    0.5144955016
     N     5.3431425631   -4.8266475706   -0.5080891816
     C     4.9620613433   -6.0159019435   -0.8589687946
     S     5.6770875499   -7.3596571551    0.0683848536
     C     4.0168509468   -6.2957685251   -1.9431978958
     C     4.2608053033   -7.3828631264   -2.7386007919
     C     3.4221781321   -7.7214246297   -3.8412329365
     C     3.6920926042   -8.8274652358   -4.6590229406
     C     2.8626998855   -9.1249548465   -5.7348065374
     C     1.7558217881   -8.3279995778   -6.0127220550
     C     1.4518141244   -7.2129574550   -5.2190850315
     C     2.2952065276   -6.8996712922   -4.1162179749
     C     2.0148514741   -5.7757864072   -3.2879219644
     C     2.8586205378   -5.4500392316   -2.1828846698
     C     2.5140256104   -4.3579724392   -1.3749083946
     C     1.3877829471   -3.5881236906   -1.6525989087
     C     0.5759115073   -3.8834895128   -2.7395495089
     C     0.8688845735   -4.9748440114   -3.5668613235
     C     0.0378786187   -5.3106930282   -4.6876419377
     C     0.3153753432   -6.3785780124   -5.4800441191
     H    -0.1951109407   -0.2871446417    2.4307393084
     H     1.2184209080   -0.3274209315    3.5212146713
     H     0.5997234808   -1.8424993351    2.7989374210
     H     2.8091444166   -2.0038206214    3.4208378810
     H     5.1009860171   -2.8494794681    3.2246098319
     H     5.4626904000   -1.0588810311   -0.6577336253
     H     3.1453713359   -0.1948106545   -0.4665612023
     H     7.5126355082   -2.1564437729    1.9283346171
     H     7.2866732457   -2.2697525139    0.1844779346
     H     5.1371366689   -8.0029034260   -2.5630501400
     H     4.5573347347   -9.4482686351   -4.4410726745
     H     3.0797463590   -9.9845968763   -6.3625596714
     H     1.1097623037   -8.5648532795   -6.8546612849
     H     3.1329134574   -4.1021570183   -0.5238561023
     H     1.1481706752   -2.7467952842   -1.0077080990
     H    -0.2989314334   -3.2754838721   -2.9561942025
     H    -0.8279666593   -4.6838228836   -4.8866163769
     H    -0.3219700610   -6.6234527159   -6.3260434626
