46
-1.2582543811496444e+03 frame 52   xyz file generated by TeraChem
     C     1.1869410120    0.5123705781    0.0858750485
     O     2.5317415701    0.0239762440    0.0081152550
     C     3.0255735867   -0.1086832589   -1.2216604717
     O     2.4147049968    0.1349491569   -2.2378034412
     C     4.4644595480   -0.5787770882   -1.1610871762
     N     4.9258766500   -1.0335845580   -2.4519408090
     C     5.6961478088   -0.1634527795   -3.2182252168
     O     5.9886302188    0.9486427700   -2.7947436532
     C     6.1369799348   -0.6586116504   -4.5334599483
     C     6.8854477591    0.1749426384   -5.3449355235
     C     7.2724830801   -0.2506584603   -6.6214905657
     C     6.9491066649   -1.5205616260   -7.0573262517
     C     6.2326187460   -2.4230475824   -6.2380308770
     C     5.7746246082   -1.9574807787   -4.9687125506
     C     4.9313686502   -2.7591426184   -4.1660361368
     C     4.4658799225   -2.2893431438   -2.8690447660
     O     3.7169124885   -2.9257329915   -2.1335083489
     C     4.5242241149   -3.9996948091   -4.6422794120
     C     4.9853645275   -4.4905608800   -5.8553147334
     C     5.8823333424   -3.7613012479   -6.6482638461
     N     6.3505512955   -4.3316165668   -7.7987342927
     C     7.7090953931   -4.2307544497   -8.3073289672
     C     7.8276568379   -3.6575542006   -9.7046755686
     C     6.7183724247   -3.2059862654  -10.4192788796
     C     6.8673370823   -2.6932910008  -11.7088252493
     C     8.1276665901   -2.6285306162  -12.2960096539
     C     9.2420936952   -3.0790880712  -11.5862655417
     C     9.0919021522   -3.5902505660  -10.3013550241
     H     0.9524888290    0.5571723941    1.1487553847
     H     0.5060415023   -0.1704478836   -0.4275372657
     H     1.1169554172    1.5058928699   -0.3633385227
     H     4.5548369352   -1.3818505942   -0.4280325628
     H     5.0936535971    0.2593434097   -0.8526261593
     H     7.1419602394    1.1670352034   -4.9867307022
     H     7.8170290219    0.4228250307   -7.2759962188
     H     7.2222554195   -1.8076811682   -8.0668237719
     H     3.8588518657   -4.6028667802   -4.0317178858
     H     4.6908507800   -5.4857702498   -6.1783770401
     H     5.9251970657   -5.2292164429   -7.9958066758
     H     8.1435190141   -5.2388611003   -8.3037719434
     H     8.3138494224   -3.6457959834   -7.6068483401
     H     5.7348183660   -3.2603548778   -9.9595540758
     H     5.9930393239   -2.3459703194  -12.2536455323
     H     8.2442188210   -2.2300595308  -13.3004417679
     H    10.2304946117   -3.0326265947  -12.0363969604
     H     9.9639915772   -3.9430491602   -9.7536259605
