47
-1.5781820393674493e+03 frame 88   xyz file generated by TeraChem
     C     2.3235380839    2.7740970185   -0.6557715274
     O     3.3156008642    1.8688221357   -0.2056510808
     C     3.9891530651    2.1840498154    0.9290606005
     C     3.7582623662    3.3343103803    1.6904324688
     C     4.5138150760    3.5610300163    2.8385878708
     C     5.5012180762    2.6658675241    3.2509482027
     C     5.7164829824    1.5184968546    2.4813744710
     C     4.9742581440    1.2761278852    1.3332479321
     C     6.3181247849    2.9382018931    4.4975382151
     C     5.4951674617    2.9721678281    5.7363068037
     N     5.1930163184    4.0270435969    6.4637810577
     N     4.3866384993    3.6521717306    7.5216679470
     C     4.2243561034    2.3620269413    7.3943958716
     N     4.8886280113    1.8870701735    6.3019922847
     N     4.8411723713    0.5649768137    6.0285034082
     C     4.1116504231   -0.0232568214    6.9285873817
     S     3.4301892231    1.0392579054    8.1862708081
     C     3.8491394427   -1.4584921575    6.9232443170
     C     4.2992181353   -2.2421843396    5.8501015196
     C     4.0602379305   -3.6063214042    5.8328242085
     C     3.3663259012   -4.2367967876    6.8789304720
     C     2.9201494079   -3.4439147328    7.9458491961
     C     3.1563278794   -2.0773501009    7.9704350953
     C     3.1167920596   -5.6936534465    6.8579853390
     C     4.0619159857   -6.5741912749    6.3116199247
     C     3.8305045959   -7.9460750859    6.2962560054
     C     2.6487490656   -8.4641402732    6.8238827923
     C     1.7005928211   -7.5992908029    7.3684046044
     C     1.9323584348   -6.2274215634    7.3869314869
     H     1.9183434663    2.3440749278   -1.5729789951
     H     2.7511641223    3.7601937107   -0.8736176545
     H     1.5188315469    2.8833632408    0.0812459879
     H     3.0015858903    4.0545881740    1.3991412163
     H     4.3258214192    4.4591398501    3.4234521045
     H     6.4802808262    0.8050007044    2.7827524054
     H     5.1447846793    0.3861200495    0.7339915512
     H     6.8182615756    3.9101853588    4.4280947155
     H     7.0999431112    2.1772615987    4.6048487765
     H     4.8259832383   -1.7712383626    5.0260919336
     H     4.3963313731   -4.1899765390    4.9806033241
     H     2.4027624988   -3.9050202228    8.7820571156
     H     2.8078974910   -1.5008450549    8.8242166213
     H     4.9968250680   -6.1834646078    5.9185276301
     H     4.5794325463   -8.6128357012    5.8770490291
     H     2.4677013658   -9.5355996549    6.8108546927
     H     0.7727036171   -7.9932125864    7.7747209889
     H     1.1763793320   -5.5608530899    7.7936497193
