27
-1.0663616815707019e+03 frame 25   xyz file generated by TeraChem
     C     2.7214172271    0.8086185966    1.1178230337
     O     2.3331356679    0.3561386744   -0.1648863206
     C     3.0338070869   -0.6824896570   -0.6963246713
     C     4.0912577277   -1.3224679054   -0.0664011010
     C     4.7187336469   -2.4011913880   -0.7128635307
     C     4.2641707481   -2.8207427410   -1.9933330407
     C     3.2074405359   -2.1682529190   -2.6320741703
     C     2.6003906377   -1.1070978192   -1.9838726150
     O     1.5285298451   -0.4902639209   -2.5787416682
     C     1.8298859951    0.7848917617   -3.1371532605
     N     5.0215106656   -3.8914254678   -2.4188483614
     C     5.9525125766   -4.1763137841   -1.4509718946
     C     5.7936125860   -3.2836417206   -0.3951613478
     S     6.9479238421   -3.6024378806    0.8539510187
     C     7.6164119250   -4.9231325157   -0.0644558350
     C     6.9985983567   -5.1215254471   -1.2674635440
     H     2.0487239837    1.6319193664    1.3633721564
     H     3.7568886911    1.1713407249    1.1180288271
     H     2.6174558307    0.0155883108    1.8687497246
     H     4.4313964532   -1.0078210729    0.9141465959
     H     2.8488591454   -2.4703362397   -3.6118071528
     H     0.9044543691    1.1523578980   -3.5864798043
     H     2.6008420457    0.6965027893   -3.9128532043
     H     2.1647788557    1.4865032638   -2.3662584277
     H     4.9021957450   -4.3797566305   -3.2938094472
     H     8.4443420290   -5.4830455371    0.3522891141
     H     7.2805418808   -5.8971878820   -1.9706014548
