95
-3.9690302408400185e+03 frame 154   xyz file generated by TeraChem
     O     6.1816015822    2.6389421149   -0.1564416694
    Cl     5.2718686795    1.4839479919   -0.3073730292
     O     5.6778910069    0.6829100665   -1.4852529691
     O     3.8839320620    1.9616452085   -0.4918939108
     O     5.3449061823    0.6420336270    0.9110657317
     O    -1.1296697537    0.1624035460   -2.0873687163
    Cl    -0.0481467317   -0.8371021303   -2.2239866160
     O     0.0588870116   -1.2662995189   -3.6356693395
     O     1.2357436702   -0.2312039704   -1.8003320334
     O    -0.3500181612   -2.0124087631   -1.3764566605
     C     1.6803278495    0.0599031578    1.7445760158
     N     1.1724319021   -1.3007603345    1.7919534322
     C     1.9025364817   -2.3431551138    1.2913174751
     C     3.1502445917   -2.1797380496    0.7210266085
     C     4.0280052678   -3.1408055280    0.1572683304
     C     3.8462852622   -4.5429042798    0.0876734788
     C     4.7810780579   -5.3740858843   -0.4861098395
     C     4.5294666653   -6.8478871939   -0.5605794568
     N     5.9346897249   -4.8602585977   -1.0162296722
     C     6.1582742948   -3.5040228736   -0.9922357331
     C     5.2349022496   -2.6693819100   -0.4188809167
     C     7.3966484275   -2.9446500244   -1.6184351829
     C     6.9631154818   -5.7673835645   -1.5530377714
     C     7.9470570915   -6.2315659992   -0.4798764425
     C     8.8889985092   -7.3273091410   -0.9823139865
     C     9.8241361036   -6.9425260627   -2.1302696996
     C    10.7772874887   -5.8086666462   -1.7532792017
     N    11.8649550056   -5.6391526570   -2.7325039600
     C    11.7020774692   -4.7995713535   -3.8042709183
     C    10.4378895879   -4.0108236699   -3.9390360925
     C    12.6999277178   -4.6737574546   -4.7412687037
     C    13.9180331199   -5.3871288825   -4.6433461580
     C    14.0114712710   -6.2671533773   -3.5384863535
     C    13.0147543319   -6.3796683701   -2.6021210011
     C    13.1863807472   -7.2782391031   -1.4175258536
     C    14.9686386225   -5.3544163140   -5.5996368158
     C    15.2039407837   -4.4502061421   -6.6209894131
     S    16.0994931783   -4.9591171692   -8.0482785712
     C    15.9496646640   -3.3707164489   -8.7634788364
     C    15.2307314759   -2.5214448284   -7.9135841717
     N    14.8694757043   -3.1315596177   -6.7121378334
     C    14.5027290229   -2.3178179023   -5.5629756493
     C    14.9677325064   -1.2046057668   -8.2856892190
     C    15.4413274799   -0.7629387211   -9.5183208876
     C    16.1632940139   -1.6107734736  -10.3622447068
     C    16.4276845634   -2.9270549898   -9.9905264932
     S     1.0195221102   -3.8456448011    1.4761572333
     C    -0.3323255774   -3.0157189325    2.2114166505
     C    -0.0774650698   -1.6405008415    2.2952874240
     C    -1.0403514870   -0.7919035029    2.8447779587
     C    -2.2323571023   -1.3474127405    3.2998807829
     C    -2.4761785996   -2.7206468534    3.2162437305
     C    -1.5211264151   -3.5713766940    2.6664983567
     H     1.7732406975    0.3909472815    0.7063505219
     H     2.6576705097    0.1124086488    2.2316943229
     H     0.9943898152    0.7192731673    2.2721318094
     H     3.5131280325   -1.1584361523    0.6759651203
     H     2.9626491026   -5.0243688395    0.4856158580
     H     3.6081790647   -7.0828210270   -0.0250275496
     H     5.3404735766   -7.4329816151   -0.1167456136
     H     4.4090244297   -7.1755819611   -1.5999887133
     H     5.4417584420   -1.6042332434   -0.4212155113
     H     8.3090491278   -3.3636880699   -1.1826742079
     H     7.4125205854   -1.8633930136   -1.4703905176
     H     7.4209253720   -3.1374591237   -2.6974089046
     H     7.4732430335   -5.2485753835   -2.3649509118
     H     6.4585559092   -6.6238302076   -2.0030036431
     H     7.3856213298   -6.6253672833    0.3756559636
     H     8.5148058832   -5.3735073093   -0.0993431477
     H     8.2905230213   -8.1897031497   -1.3026820060
     H     9.4961252026   -7.6707019504   -0.1348033423
     H     9.2532436103   -6.6666255819   -3.0247049088
     H    10.4103640395   -7.8264153505   -2.4065420664
     H    11.2324656269   -5.9995582991   -0.7801587028
     H    10.2539179146   -4.8564984143   -1.6672211570
     H     9.5453343573   -4.6429811278   -3.9104004394
     H    10.4483709674   -3.4763331396   -4.8904061166
     H    10.3483526287   -3.2683638551   -3.1373643400
     H    12.5009199923   -4.0395663752   -5.5963401749
     H    14.9073742645   -6.8640343761   -3.4031809561
     H    14.1191890148   -7.8347490746   -1.5237922504
     H    12.3678854039   -7.9975393194   -1.3184213100
     H    13.2417815662   -6.7021094866   -0.4862033314
     H    15.6297788601   -6.2176139322   -5.5949926333
     H    15.1018146380   -1.4038329310   -5.5801733874
     H    14.7275892176   -2.8711748270   -4.6514282720
     H    13.4422448183   -2.0515361278   -5.5767590002
     H    14.4004591749   -0.5430754245   -7.6388783773
     H    15.2403921167    0.2592094477   -9.8251940442
     H    16.5218503292   -1.2446840249  -11.3196409606
     H    16.9880159298   -3.5914366267  -10.6410901990
     H    -0.8785283978    0.2779933311    2.9171091736
     H    -2.9859696481   -0.6922024282    3.7270123084
     H    -3.4145343124   -3.1297857372    3.5782772841
     H    -1.6974265752   -4.6401430735    2.5914339457
