57
-1.8089716461544867e+03 frame 69   xyz file generated by TeraChem
     C    11.7223312574    7.2721177293   -1.8202235900
     O    10.7810218460    7.6672289398   -2.8023054039
     C     9.6790578503    6.8928249769   -2.9653902065
     C     9.3870448875    5.7631574622   -2.1985663199
     C     8.2202071275    5.0411942551   -2.4545242774
     C     7.3372818313    5.4173331447   -3.4632052847
     C     7.6448262582    6.5537029496   -4.2231862636
     C     8.7972150082    7.2847435367   -3.9819141446
     C     6.0775422980    4.6234710908   -3.7381916280
     C     4.8306981448    5.3951447334   -3.4845378548
     N     3.9333075994    5.7686781762   -4.3722553634
     N     2.9256261900    6.4810033040   -3.7507053938
     C     3.2549919232    6.5173818423   -2.4867707885
     N     4.4293676209    5.8598677177   -2.2643234367
     N     4.9163849401    5.7951093781   -1.0056468957
     C     4.1068842823    6.4277208729   -0.2102526736
     S     2.6711699099    7.1479529222   -0.9804906404
     C     4.3540264778    6.5701786168    1.2207827632
     C     5.6050869784    6.2119592241    1.7452226447
     C     5.8590639307    6.3460528843    3.0998752909
     C     4.8818478216    6.8436870023    3.9779802021
     C     3.6337026548    7.1956259567    3.4435050040
     C     3.3710280114    7.0612495662    2.0881368574
     C     5.1634108248    7.0005558721    5.4192210885
     C     6.4454030051    7.3455763594    5.8708312951
     C     6.7083221071    7.5059589453    7.2243798009
     C     5.7030712656    7.3264687336    8.1854456830
     C     4.4230513303    6.9749094616    7.7330706312
     C     4.1580209363    6.8167574164    6.3793111764
     C     5.9845118432    7.5065063379    9.6266893298
     C     6.8981923435    8.4777549560   10.0624561129
     C     7.1649751346    8.6497636444   11.4173635315
     C     6.5239373574    7.8543784938   12.3657536238
     C     5.6130425320    6.8857574408   11.9466455297
     C     5.3459636395    6.7137052674   10.5916012635
     H    12.5317703039    8.0020809207   -1.8683080626
     H    12.1197094932    6.2716654031   -2.0293085103
     H    11.2812839923    7.2838719398   -0.8161926204
     H    10.0519272621    5.4382120175   -1.4058000125
     H     8.0008353821    4.1638152120   -1.8501246503
     H     6.9700311104    6.8683999193   -5.0166298062
     H     9.0377940139    8.1635791325   -4.5736470198
     H     6.0708720965    3.7138350124   -3.1257368509
     H     6.0372245830    4.3078815864   -4.7864159615
     H     6.3748477599    5.8300438367    1.0819402675
     H     6.8281854433    6.0445576757    3.4866527103
     H     2.8624606565    7.6006145058    4.0919296597
     H     2.3895740228    7.3430302345    1.7140408104
     H     7.2456461735    7.5103310384    5.1542873181
     H     7.7162453201    7.7621676491    7.5399849193
     H     3.6169452192    6.8394732228    8.4492003822
     H     3.1570631663    6.5319118703    6.0662050934
     H     7.3862733368    9.1203182919    9.3343604421
     H     7.8707133179    9.4138175486   11.7331932319
     H     6.7322132452    7.9885113129   13.4239037172
     H     5.1131800344    6.2549470908   12.6771948756
     H     4.6502329775    5.9403572844   10.2761629947
