23
-5.1328296753149129e+02 frame 29   xyz file generated by TeraChem
     C     3.3807303657   -0.5611636409    0.9289446265
     C     2.5670296060   -0.0580632414   -0.2554627877
     N     2.8949684629    1.3059603869   -0.6305583831
     C     3.8264252333    1.7136809497   -1.5515250478
     N     4.5230526207    0.8086743438   -2.3075422237
     N     3.9115104844    3.0225283397   -1.6862531162
     C     2.9823763216    3.5199428367   -0.7901046412
     C     2.3422847743    2.4625653094   -0.1055439871
     C     1.3694878421    2.6745271216    0.8641412700
     C     1.0343720824    4.0002320438    1.1416868433
     C     1.6569037639    5.0637003786    0.4719113948
     C     2.6331691387    4.8394048215   -0.4970413088
     H     3.0834226477   -1.5852858073    1.1767064003
     H     3.2150974754    0.0680892588    1.8094899666
     H     4.4518904322   -0.5603119021    0.7002439443
     H     1.4967662492   -0.0844038033   -0.0283510026
     H     2.7196081213   -0.6911005296   -1.1353594071
     H     4.8182832465   -0.0348174922   -1.8311188375
     H     5.2902620743    1.2393650978   -2.8089605766
     H     0.8900160140    1.8506064902    1.3859309339
     H     0.2774581082    4.2101330424    1.8926300422
     H     1.3716884923    6.0841413256    0.7148713943
     H     3.1139940562    5.6654550775   -1.0146739816
