33
-9.8820552072206488e+02 frame 38   xyz file generated by TeraChem
     C     2.8070394443    1.1374052176    0.1882650567
     N     2.4515735454    0.1646743103   -0.8192613156
     C     3.1451494836   -0.9603511568   -1.0641096635
     C     4.3074552535   -1.2588326934   -0.3304815195
     C     5.0244608969   -2.4195267953   -0.5717292442
     C     4.6298259356   -3.3378422904   -1.5408220382
     C     3.4660306086   -3.0751107543   -2.3080396018
     C     2.7093744046   -1.8883509064   -2.0903902686
     C     1.5662802753   -1.6654149267   -2.8855818272
     C     1.1702561081   -2.5677149749   -3.8557639267
     C     1.9075910303   -3.7370594860   -4.0644107354
     C     3.0371834858   -3.9889618525   -3.3040182952
     C     3.7865825715   -5.2308134317   -3.5374397687
     O     3.4786035033   -6.0850320732   -4.3588962745
     N     4.9120888622   -5.4130842970   -2.7409797937
     C     5.4052991147   -4.5428220483   -1.7534076515
     O     6.4297414385   -4.8544103366   -1.1549147280
     C     5.6326310271   -6.6509745918   -2.9177347197
     O     5.4178495348   -7.6345673620   -2.2603037061
     O     6.5217539985   -6.5218472416   -3.8810044847
     C     7.2992815978   -7.6991390066   -4.1539944130
     H     2.0647838095    1.9360651701    0.1657583464
     H     3.7949487569    1.5720359978   -0.0058283448
     H     2.8135921656    0.6920181719    1.1905472823
     H     1.6090578506    0.3426786757   -1.3419059525
     H     4.6467990562   -0.5732253717    0.4372036972
     H     5.9182769509   -2.6292324462    0.0088814137
     H     0.9667235444   -0.7692337945   -2.7543410417
     H     0.2865679363   -2.3672913503   -4.4532575796
     H     1.6093892480   -4.4594796253   -4.8179923896
     H     7.9600112226   -7.4257791361   -4.9750341533
     H     6.6410368070   -8.5210244149   -4.4431256863
     H     7.8765019340   -7.9768661809   -3.2695373650
