56
-2.0218300911208007e+03 frame 67   xyz file generated by TeraChem
     C     2.6529756440    1.2714873070    2.4494271183
     N     1.5140424265    0.7257608501    1.7550481608
     C     1.3801051812    1.0553568996    0.3593170073
     C     2.2600307005    0.1020833071   -0.4836413947
     O     2.5831457470   -0.9910278557   -0.0096245178
     C     2.6360874809    0.5069015421   -1.8221970298
     C     3.4114434910   -0.3648221302   -2.6667205182
     O     3.7699836555    0.0111690767   -3.8667701582
     N     3.7890593787   -1.5632059503   -2.2821110690
     C     2.2962291519    1.7772835945   -2.3381030155
     O     2.6539625114    2.1988756587   -3.4674349017
     C     1.4519821538    2.7494136597   -1.5221666004
     C     1.6047408811    2.5476753802   -0.0054888380
     C     0.6723236238    3.4818504708    0.8152705796
     C    -0.3350572631    4.2590928972   -0.0535940701
     C    -0.9262974271    3.3176851304   -1.0531854711
     C    -2.2337136591    2.9045183378   -0.9745778592
     O    -2.7215741350    2.0462591429   -1.8735364167
     C    -3.1134593062    3.2764303787    0.1263116875
     C    -2.6890197965    4.2920055678    1.0332178634
     C    -1.4023216182    5.0756783364    0.7200839311
     C    -1.8144128948    6.2850345424   -0.1245593903
     O    -0.7916551449    5.6175674151    1.8740634283
     C    -3.5480792646    4.6126637513    2.0850928455
    Cl    -3.2860613665    5.9310280405    3.2088862779
     C    -4.7471204786    3.9188797239    2.2871834920
     C    -5.1362268770    2.9165344101    1.4283313206
     C    -4.3378703416    2.5914802614    0.3290691888
     O    -4.8069836697    1.6153266468   -0.4626119045
     C    -0.0317671667    2.5695751093   -1.8826689909
     O    -0.3980775620    1.7556506860   -2.7578603599
     O     1.8541254021    4.0582228486   -1.8757211784
     C     0.3330950855    0.5631811894    2.5678357894
     H     2.5413894478    2.3345017057    2.7325207075
     H     3.5540596565    1.1770118775    1.8333311546
     H     2.8203299963    0.7004224925    3.3704547009
     H     0.3499133659    0.7973460365    0.0687569067
     H     3.4140545392    0.9572457421   -3.9868434721
     H     4.3345222159   -2.1500880452   -2.8994569047
     H     3.5188764122   -1.8523422000   -1.3416434326
     H     2.6483429623    2.8003382036    0.2179069711
     H     0.1193489874    2.8778029890    1.5408231491
     H     1.2814558528    4.1887291057    1.3852458668
     H     0.2420450384    5.0106400111   -0.6007124191
     H    -1.9421687674    1.7690297389   -2.4641324997
     H    -2.2124525764    5.9667299746   -1.0926797317
     H    -0.9357348294    6.9162159073   -0.2953092308
     H    -2.5758955240    6.8726953094    0.3964577494
     H    -0.5956599743    4.8907190621    2.4848198366
     H    -5.3793716206    4.1916357915    3.1261167825
     H    -6.0657062020    2.3761458432    1.5760570017
     H    -4.1785877007    1.4685803404   -1.1991011047
     H     2.1443043520    3.9783869256   -2.8063144064
     H     0.5536626066   -0.1244463968    3.3954854567
     H    -0.4718188398    0.1218666336    1.9717545807
     H    -0.0503832418    1.4965366561    3.0190772304
