35
-1.2133496510634493e+03 frame 40   xyz file generated by TeraChem
     C     2.7055047862    3.0521350644    0.2177390454
     C     2.1531176587    1.6661083035    0.5550381951
     C     2.8485818580    1.0124347323    1.7021705438
     N     3.5586490871   -0.0780710403    1.5887584484
     N     4.1136634613   -0.5012399767    2.7508969611
     C     3.8292462036    0.2822482489    3.7610117256
     S     2.8098747770    1.6296246548    3.3259388641
     N     4.1909797661    0.1711505946    5.0909798389
     N     5.0603687037   -0.7458552585    5.3023863010
     C     5.4322671723   -0.9526037189    6.5852321604
     C     6.4425655985   -1.9184485204    6.9435448763
     C     7.2421191289   -2.7982131522    6.2094453902
     C     8.1354675067   -3.6103162858    6.8964440440
     C     8.2387250313   -3.5517704456    8.2957728550
     C     7.4521788064   -2.6817888233    9.0433272179
     C     6.5594129735   -1.8711601098    8.3451959494
     N     5.6571668465   -0.9160558809    8.8178538871
     C     4.9752406138   -0.3639936134    7.7895191340
     C     3.9260594298    0.6643504823    7.9839271796
     C     5.4654480075   -0.5926815442   10.2203591269
     H     2.1739220604    3.4660741573   -0.6446599349
     H     3.7711562589    2.9997052469   -0.0278064797
     H     2.5813529294    3.7460376694    1.0560542967
     H     2.2642386250    0.9918354298   -0.3005407712
     H     1.0809762382    1.7377726099    0.7755056123
     H     7.1606225260   -2.8422801282    5.1270891653
     H     8.7651142436   -4.3028146149    6.3444296545
     H     8.9452330546   -4.1984395785    8.8084439040
     H     7.5402142419   -2.6486674651   10.1248639521
     H     3.6933764262    0.8211313998    9.0388779618
     H     3.0152988373    0.3702610596    7.4528816156
     H     4.2402967202    1.6176338639    7.5434605511
     H     6.2532325833   -1.0675157665   10.8032223061
     H     4.4955232980   -0.9572003722   10.5709103908
     H     5.5254781981    0.4872894836   10.3718751229
