42
-1.4048698602021559e+03 frame 62   xyz file generated by TeraChem
     C     0.0627822374   -1.1348342669   -0.5408138987
     C     1.5861561193   -1.0145908912   -0.4756172359
     C     2.2060211355   -0.6103874912   -1.7714328316
     N     2.8687363803    0.5024342439   -1.9399329692
     N     3.3446159680    0.6787385035   -3.1970659053
     C     3.0447271917   -0.3165480313   -3.9941103002
     S     2.1103859241   -1.5669485671   -3.2189961531
     N     3.3341330998   -0.4803473345   -5.3371786519
     N     4.1641927813    0.3899099783   -5.7781223714
     C     4.4589862440    0.2990621477   -7.0925272615
     C     5.3581876376    1.2151973024   -7.6870442000
     C     6.0529559557    2.3284917412   -7.0373391635
     C     7.4348841422    2.5068435535   -7.2041268284
     C     8.0921989594    3.5462936388   -6.5544740665
     C     7.3807069162    4.4200759798   -5.7339661463
     C     6.0078788277    4.2481481795   -5.5614063974
     C     5.3454383695    3.2087583459   -6.2050832824
     N     5.5159926220    0.8832556006   -8.9909122209
     C     4.7498033989   -0.2429835885   -9.2824481898
     C     4.0639004905   -0.6414519716   -8.1164399374
     C     3.2277777369   -1.7625910964   -8.1659166467
     C     3.0993969816   -2.4428414603   -9.3721364966
     C     3.7874079427   -2.0251189778  -10.5210911904
     C     4.6267033476   -0.9162037688  -10.4944567135
     C     6.2602590283    1.6065820668  -10.0041298382
     H    -0.3324076401   -1.4131412270    0.4409617266
     H    -0.2458146007   -1.9024290749   -1.2586790975
     H    -0.3930395120   -0.1849369160   -0.8384473953
     H     2.0193608629   -1.9686275079   -0.1506091314
     H     1.8803873475   -0.2580632157    0.2591646363
     H     8.0000851502    1.8126093576   -7.8198497010
     H     9.1638197104    3.6685967862   -6.6849054186
     H     7.8954403819    5.2328128966   -5.2286226271
     H     5.4486336974    4.9282401572   -4.9248535986
     H     4.2764037540    3.0779861426   -6.0746136597
     H     2.6936330689   -2.0875802916   -7.2807821979
     H     2.4534850758   -3.3149368995   -9.4265977647
     H     3.6676909896   -2.5781694819  -11.4485444802
     H     5.1657262084   -0.5982191056  -11.3816185787
     H     6.4989734238    2.6044226669   -9.6382639257
     H     5.6436787586    1.6945058097  -10.9020661158
     H     7.1864258591    1.0795663892  -10.2524519100
