39
-1.3656123678296342e+03 frame 36   xyz file generated by TeraChem
     C     4.3351195337    0.5319566910    1.6581441395
     C     4.2414979415    0.0080041778    0.2241603401
     C     3.7395572357   -1.3944159588    0.1356330340
     N     2.6404095817   -1.7310791679   -0.4856937721
     N     2.3646641919   -3.0569954987   -0.4424683151
     C     3.2663870038   -3.7390658707    0.2181349648
     S     4.5505462773   -2.7500442360    0.8585496352
     N     3.3193778080   -5.0964267884    0.4848284163
     N     2.3976463180   -5.7578105164   -0.1073201717
     C     2.3939248493   -7.0885071103    0.1272647132
     C     1.4217858922   -7.9240542659   -0.4735445146
     N     1.7005686197   -9.1987805698   -0.1232439086
     C     2.8107347928   -9.2571368520    0.7017053273
     C     3.2847851365   -7.9410382220    0.8882124008
     C     4.4165967329   -7.7346962324    1.6864256412
     C     5.0260257207   -8.8386873332    2.2723746449
     C     4.5304826345  -10.1375151749    2.0767586775
     C     3.4110937436  -10.3681577225    1.2851370455
     C     0.2974641166   -7.5953461431   -1.3440964038
     C    -0.1139241956   -8.5043428252   -2.3327493317
     C    -1.1933905304   -8.2072709629   -3.1564242513
     C    -1.8784065935   -7.0023789701   -3.0056039108
     C    -1.4765028853   -6.0942058253   -2.0268348162
     C    -0.3981043341   -6.3842700735   -1.1992320921
     H     4.6721806258    1.5730411913    1.6540974631
     H     5.0492699938   -0.0509496159    2.2497927427
     H     3.3608970316    0.4870165583    2.1553860336
     H     5.2249969836    0.0702320616   -0.2580311176
     H     3.5526458390    0.6222926636   -0.3648005204
     H     1.1239490859   -9.9972038233   -0.3558169180
     H     4.8015392911   -6.7339284499    1.8428235803
     H     5.9039672336   -8.6939374524    2.8961048297
     H     5.0297143856  -10.9782578265    2.5503432829
     H     3.0215803553  -11.3693566236    1.1249818075
     H     0.4299026728   -9.4341534640   -2.4778042085
     H    -1.4950681057   -8.9160513984   -3.9225067513
     H    -2.7227741369   -6.7717106047   -3.6494665607
     H    -2.0106538742   -5.1564365318   -1.9012366387
     H    -0.0905731922   -5.6793140770   -0.4352658417
