33
-1.2491572373594527e+03 frame 32   xyz file generated by TeraChem
     C     2.7680886001    2.0984182202   -0.6506265337
     C     3.4193368003    0.7163065221   -0.5756497818
     C     3.8853407861    0.1977546080   -1.8959935532
     C     3.4152080490   -0.8286160358   -2.6126426280
     N     4.0363046644   -1.0696787030   -3.8660888769
     N     4.8396111263    0.0345691142   -4.2013027626
     S     5.2688080533    0.9302133053   -2.7462038865
     N     4.3276682875    0.9109661013   -5.1489683050
     N     3.5647108192    0.3774545900   -5.9741561053
     C     3.1218991179    1.2272681549   -7.0064413194
     C     3.5569663054    2.5246361127   -7.2119979392
     C     3.0694296458    3.2942880292   -8.2756748304
     C     2.1350345064    2.7785233522   -9.1561956407
     C     1.6596664980    1.4417471515   -8.9851198803
     C     2.1613064323    0.6662721561   -7.9006211514
     C     1.6600193862   -0.6513935281   -7.7670595092
     C     0.7368590907   -1.1164562055   -8.6687189936
     C     0.3102604151   -0.2609902480   -9.7082679266
     N     0.7443122198    0.9700215397   -9.8710249954
     O     1.6331613116    3.4758613163  -10.1913275718
     H     2.4497074230    2.4236888353    0.3452889880
     H     1.8888588497    2.0800540317   -1.3032216282
     H     3.4666598718    2.8448666894   -1.0436635197
     H     2.7111801179   -0.0108601371   -0.1617692145
     H     4.2720858555    0.7525458962    0.1161974178
     H     2.5986722957   -1.4802195796   -2.3199292824
     H     4.6019625593   -1.9175201972   -3.8815162565
     H     4.2921929812    2.9525877453   -6.5381191852
     H     3.4294811940    4.3112839305   -8.4144239972
     H     2.0157080488   -1.2703867984   -6.9501621667
     H     0.3333507606   -2.1216950048   -8.5949815669
     H    -0.4227949106   -0.6165052532  -10.4316846515
     H     2.0280329393    4.3625634517  -10.1964578012
