37
-9.7041546306248256e+02 frame 30   xyz file generated by TeraChem
     C     1.1250355147   -0.6369066018   -0.3628666794
     C     2.6312182285   -0.6006327306   -0.2611223418
     O     2.9995326811    0.7063049822    0.1822905313
     C     4.3042326266    0.9885370940    0.3644635695
     C     5.3541000865    0.0843229857    0.1324312277
     C     6.6653918150    0.4791789470    0.3497187544
     C     6.9595131705    1.7740302687    0.8008522122
     C     5.9021172130    2.6669891271    1.0336220116
     C     4.5912822309    2.2847407317    0.8180194748
     N     8.2448486210    2.2768419852    1.0493224961
     N     9.1943368683    1.4858059027    0.8032110692
     C    10.4756177366    1.9913973669    1.0598267506
     C    10.7370179415    3.2442226768    1.5939702551
     C    12.0450523166    3.6789230481    1.8247482963
     C    13.1272306602    2.8681424236    1.5233651638
     C    12.9098695593    1.5678726150    0.9696193630
     C    11.5731634438    1.1321917520    0.7416307558
     C    11.4062466951   -0.1619156110    0.1931752938
     C    12.5116349889   -0.9238224452   -0.0898614203
     C    13.7916920124   -0.3903206756    0.1757130646
     N    13.9969701682    0.8051165330    0.6852140904
     O    14.4024495649    3.2392582411    1.7270237294
     H     0.8024638280   -1.6283552095   -0.6954449132
     H     0.7662494750    0.1040256847   -1.0841367717
     H     0.6656509389   -0.4314228857    0.6090846643
     H     3.0988808021   -0.8004807379   -1.2337010186
     H     2.9983408693   -1.3460955635    0.4558411580
     H     5.1526477209   -0.9227745453   -0.2160668835
     H     7.4778759170   -0.2179538570    0.1714845921
     H     6.1362976137    3.6680029717    1.3855245859
     H     3.7680056312    2.9707838375    0.9935417401
     H     9.9028984065    3.8945446484    1.8359890790
     H    12.2200267895    4.6655347198    2.2480309646
     H    10.4031323764   -0.5293069190    0.0053645234
     H    12.4166249359   -1.9199447914   -0.5111697440
     H    14.6789496850   -0.9828363376   -0.0450129743
     H    14.4194289930    4.1371388346    2.0969128171
