41
-1.1427608806960131e+03 frame 64   xyz file generated by TeraChem
     C     1.8665769691   -1.0593827287   -1.7082045525
     C     2.2911126195   -0.0804345002   -0.6382850896
     O     2.9158457246    1.0871034287   -1.2258620550
     C     4.2416916683    1.0147369665   -1.4994062004
     O     4.8808868110    0.0040366125   -1.3147683218
     C     4.7708496530    2.3008274278   -2.0225134865
     C     4.1884448564    3.5621386633   -1.6669396947
     O     3.0980244677    3.6243301231   -0.9073849866
     C     4.7768476658    4.7698337386   -2.0820238237
     N     4.3557843228    6.0538115420   -1.7701357787
     N     3.3007447343    6.2270187569   -1.0996741913
     C     3.0160036984    7.5868467571   -0.8335331147
     C     3.8994052923    8.6552772799   -1.0505692870
     C     3.5084127326    9.9495925582   -0.7347235410
     C     2.2401758257   10.1976552343   -0.2017205550
     C     1.3630373752    9.1377493599    0.0215582337
     C     1.7521139433    7.8378745647   -0.2866209443
     C     5.9477214494    4.7230565941   -2.9178274790
     C     6.5050259239    3.4785566515   -3.3206105831
     C     5.8999875553    2.2719844124   -2.8461068091
     O     6.3804932275    1.0782686042   -3.1968679383
     C     7.6436747002    3.4613284875   -4.1643660800
     C     8.2244388900    4.6301056330   -4.5938245953
     C     7.6791918280    5.8642670642   -4.1907023639
     C     6.5708292311    5.9092898139   -3.3774603907
     H     1.3287787405   -1.8920437223   -1.2428165706
     H     2.7345231333   -1.4619050189   -2.2379136786
     H     1.1996284103   -0.5791911635   -2.4308064803
     H     2.9929165678   -0.5257253112    0.0700349068
     H     1.4344397382    0.3234848090   -0.0960854121
     H     2.7554047990    2.7127948637   -0.7800700868
     H     4.8858303659    8.4541861599   -1.4559810603
     H     4.1969300204   10.7746904545   -0.8991409428
     H     1.9428315159   11.2136880201    0.0438394503
     H     0.3772671220    9.3228714909    0.4398216187
     H     1.0858934399    6.9962378997   -0.1166714242
     H     7.1422510535    1.1751556594   -3.7880111217
     H     8.0910716295    2.5258995204   -4.4927633178
     H     9.0973402830    4.5996502940   -5.2388125318
     H     8.1364190482    6.7910874663   -4.5268807299
     H     6.1510873479    6.8609486605   -3.0752269541
