45
-1.2571630043148866e+03 frame 51   xyz file generated by TeraChem
     C     1.6919984547    1.5924495737    2.0795965327
     C     1.9865158009    0.5732196373    1.0034110308
     O     2.5773149152   -0.6198942359    1.5735615752
     C     3.9206528834   -0.6238426050    1.7602348512
     O     4.6027739875    0.3445732358    1.5129273185
     C     4.4057424901   -1.9270336674    2.2824802937
     C     3.7111438843   -3.1575982270    2.0280128764
     O     2.5602674694   -3.1703764591    1.3578425754
     C     4.2433050880   -4.3868849653    2.4525819873
     N     3.7060762369   -5.6507179665    2.2435894097
     N     2.5964744033   -5.7731996230    1.6535493088
     C     2.1769237503   -7.1086215542    1.4926076485
     C     0.8853297845   -7.2797663884    0.9722340308
     C     0.3601887843   -8.5440756429    0.7730961163
     C     1.1264550727   -9.6767479702    1.0810198182
     C     2.4245447914   -9.5204640325    1.5893147453
     C     2.9378999427   -8.2467666703    1.7920632904
     O     0.5331036724  -10.8692131987    0.8529213997
     C     1.2793484689  -12.0477605358    1.1102014299
     C     5.4763193470   -4.3912011084    3.1937140089
     C     6.1520087087   -3.1759939987    3.4925684385
     C     5.5985497253   -1.9482440172    3.0112080910
     O     6.1973525863   -0.7821828351    3.2634729826
     C     7.3532068624   -3.2093938101    4.2445720673
     C     7.8799081378   -4.3986686516    4.6866213794
     C     7.2166524982   -5.6045543300    4.3869194524
     C     6.0483271620   -5.6004686417    3.6617655303
     H     1.1820193582    2.4527050111    1.6335374552
     H     2.6158482195    1.9427573548    2.5480713458
     H     1.0410592484    1.1665402326    2.8492907906
     H     2.6670070879    0.9637087655    0.2438256818
     H     1.0745361867    0.2135050965    0.5240400163
     H     2.2733519027   -2.2423364236    1.2152957729
     H     0.3009753001   -6.3949964079    0.7339722266
     H    -0.6410999219   -8.6820895674    0.3756660289
     H     3.0359080869  -10.3853403401    1.8238762396
     H     3.9434029040   -8.1240212756    2.1820425056
     H     0.6243423435  -12.8792435144    0.8470448618
     H     1.5551094659  -12.1205684539    2.1686101662
     H     2.1850320967  -12.0855037613    0.4938217930
     H     6.9867894541   -0.9173403496    3.8088885642
     H     7.8929010135   -2.2977471975    4.4909480815
     H     8.8009408102   -4.4063585416    5.2615560622
     H     7.6308831937   -6.5478785076    4.7329401125
     H     5.5388846639   -6.5295883075    3.4375452081
