42
-1.0487321672266987e+03 frame 16   xyz file generated by TeraChem
     C     7.3233134400   -7.6636521006    2.0359315339
     O     7.2585793530   -6.3559432701    1.4910792574
     C     6.8607117340   -6.2269657515    0.2053716952
     C     6.5192454047   -7.2932683433   -0.6318827996
     C     6.1282386155   -7.0330874404   -1.9419553469
     C     6.0638083141   -5.7284890840   -2.4385560989
     C     6.4130681811   -4.6638245739   -1.5866641423
     C     6.8048169693   -4.9108338032   -0.2862321963
     N     5.6553108555   -5.5920000920   -3.7773267865
     N     5.5331971135   -4.3913026532   -4.1647836083
     C     5.1658093733   -4.2241315415   -5.4753587133
     C     4.9436527290   -2.9447595326   -6.0076385832
     N     4.6682322552   -3.0801670206   -7.3350960423
     C     4.6792825874   -4.4082757434   -7.7002242392
     C     4.9963111165   -5.1732952583   -6.5526258833
     C     5.0885308863   -6.5677801844   -6.6754590314
     C     4.8485975468   -7.1465704490   -7.9150934404
     C     4.5207180212   -6.3651130181   -9.0368566139
     C     4.4334214103   -4.9822734009   -8.9463814080
     C     4.9865936145   -1.6279500259   -5.3757889135
     C     5.4003758526   -0.5062842957   -6.1126471478
     C     5.4251154750    0.7545146937   -5.5262435888
     C     5.0391348914    0.9172434494   -4.1966891147
     C     4.6264150842   -0.1906387117   -3.4570892780
     C     4.5956443744   -1.4532206930   -4.0389655812
     H     7.6561296888   -7.5417730917    3.0674371675
     H     8.0427935170   -8.2853089377    1.4902892966
     H     6.3399846705   -8.1481222487    2.0230404401
     H     6.5563125755   -8.3176565488   -0.2781376436
     H     5.8610589434   -7.8539887895   -2.6024187198
     H     6.3750267271   -3.6474665405   -1.9655149773
     H     7.0801317189   -4.0969733600    0.3790061173
     H     4.3876967262   -2.3206919913   -7.9403574840
     H     5.3386439249   -7.1756123786   -5.8139161671
     H     4.9130761613   -8.2262893428   -8.0211448003
     H     4.3356352073   -6.8495046590   -9.9918219103
     H     4.1863806524   -4.3686803649   -9.8082987941
     H     5.7295445754   -0.6242655425   -7.1419631440
     H     5.7539156014    1.6109672553   -6.1086298331
     H     5.0586889526    1.9027702459   -3.7392792580
     H     4.3159714808   -0.0700908634   -2.4226582507
     H     4.2609933951   -2.3116138666   -3.4673156884
