44
-1.2191961604205917e+03 frame 41   xyz file generated by TeraChem
     C     1.5144626711   -0.4363669439   -0.4928291502
     O     2.9067267361   -0.5118255546   -0.1636191229
     C     3.1897220709   -0.5882430708    1.1357605342
     O     2.3632984169   -0.5856353595    2.0201425048
     C     4.6851374514   -0.7175094721    1.3351178594
     N     5.0616754771   -0.4954093198    2.7112775267
     C     5.0351541736    0.8242620198    3.1520242443
     O     4.6981272957    1.7141081120    2.3797616075
     C     5.4367818159    1.0695396394    4.5457960519
     C     5.5343877719    2.3717398177    5.0024370132
     C     5.9745158960    2.6233204797    6.3083153368
     C     6.2513889454    1.5730836664    7.1617231901
     C     6.0925344364    0.2290933589    6.7544561871
     C     5.7389200183   -0.0204183355    5.3977437124
     C     5.7321770822   -1.3403299030    4.8888258553
     C     5.3681199556   -1.6118548326    3.5023635819
     O     5.3308367708   -2.7367101118    3.0149733896
     C     6.1030813053   -2.3839023219    5.7236324750
     C     6.4170980458   -2.1689273721    7.0631637300
     C     6.3594628781   -0.8906358840    7.6294685581
     N     6.6017211429   -0.6729779546    8.9676125909
     C     7.3296156428   -1.6474943514    9.7725578064
     C     6.3967601447   -2.5267694211   10.5930045968
     O     5.5579757311   -1.7272837993   11.4085997155
     C     4.7897831037   -0.8463997229   10.6118921204
     C     5.6693155671    0.0955933735    9.7970093573
     H     1.4722606855   -0.3908717152   -1.5804403662
     H     1.0706003842    0.4608723325   -0.0551324346
     H     0.9886943292   -1.3212005303   -0.1263121143
     H     5.2020127765   -0.0094255911    0.6848583780
     H     4.9858798341   -1.7328318130    1.0660639000
     H     5.2985798067    3.1872646220    4.3256202501
     H     6.1113294299    3.6459587040    6.6463002732
     H     6.6311112841    1.7855429600    8.1555633700
     H     6.1097153212   -3.3946083967    5.3260709365
     H     6.6381567309   -3.0284857622    7.6857468373
     H     7.9637347538   -1.0769223307   10.4644956681
     H     7.9879618550   -2.2452044165    9.1380682833
     H     6.9730235305   -3.1705487286   11.2637111089
     H     5.7832167131   -3.1611812512    9.9337382498
     H     4.1590538691   -0.2684685717   11.2940432828
     H     4.1412846688   -1.4220742849    9.9311966562
     H     6.2448412031    0.7438022689   10.4703689178
     H     5.0302404059    0.7231064287    9.1741335223
