102
-4.1188590023209126e+03 frame 449   xyz file generated by TeraChem
     O     0.7838561388   -1.4046510504   -3.9316406169
    Cl     1.2907829339   -0.0158552038   -3.8121158671
     O     0.2830536401    0.9249056020   -4.3445481605
     O     1.5452750447    0.2917726652   -2.3859371461
     O     2.5477642535    0.1118789799   -4.5806880852
     O     6.5150644011   -5.7022581840    4.9719623568
    Cl     7.2283464317   -4.5358696257    4.4081762888
     O     7.9961116318   -3.8607182488    5.4767565847
     O     8.1555005079   -4.9939485268    3.3474080989
     O     6.2470839000   -3.5878782694    3.8350861679
     C     1.9524299183  -10.7583995054    0.7388925351
     N     0.9619393917   -9.7882210428    1.1704332008
     C     1.0536640070   -8.4742833060    0.7964897279
     C     2.0931867227   -7.9796583848    0.0347072024
     C     2.3230931471   -6.6609991945   -0.4423263028
     C     3.5295932577   -6.4055849768   -1.1377619779
     C     3.8677010111   -5.1630448673   -1.6132221997
     C     5.1482158915   -4.9614599934   -2.3582103201
     N     3.0128494642   -4.1059832770   -1.4214961069
     C     1.8030587377   -4.3035328829   -0.8087721754
     C     1.4614626894   -5.5456760747   -0.3238262784
     C     0.8349344187   -3.1666376454   -0.7068327627
     C     3.3893623812   -2.7417738585   -1.8369808739
     C     3.9889349083   -1.9107858744   -0.7062889986
     N     5.3376716167   -2.3231924785   -0.3661796602
     C     5.8353678540   -1.6612981339    0.8315000812
     C     7.3229654654   -1.9186264416    0.9944604221
     N     8.0563388772   -1.3585236547   -0.1358909634
     C     9.4617500205   -1.7220663863   -0.1711110592
     C     9.6286315693   -3.0390799015   -0.9355257553
     N    11.0307822979   -3.4763786995   -0.9927654731
     C    11.8382992477   -3.0471320894   -2.0181005345
     C    11.2484443654   -2.2429226864   -3.1336339861
     C    13.1704758336   -3.3759075715   -2.0222302073
     C    13.7669723256   -4.1374564667   -0.9880626180
     C    12.8743588228   -4.6010579698    0.0074251665
     C    11.5400293646   -4.2723537162    0.0019994937
     C    10.6231826645   -4.8068605528    1.0557745539
     C    15.1458433080   -4.4680087225   -1.0768189646
     C    15.9873929389   -5.0184388482   -0.1253056658
     S    17.3913928918   -5.9478668273   -0.6386206423
     C    17.8540990327   -6.2494342730    1.0198030602
     C    16.9381299271   -5.6540891508    1.8956674868
     N    15.9387590559   -4.9386617716    1.2349203406
     C    15.1678336045   -3.9319916746    1.9491642010
     C    17.0948172733   -5.7786358200    3.2747030376
     C    18.1845209144   -6.5036774782    3.7498023808
     C    19.1005813415   -7.0912337194    2.8735338340
     C    18.9445605159   -6.9678441974    1.4947129187
     S    -0.2988219913   -7.5645861694    1.4466811653
     C    -0.9477503847   -8.9930915141    2.2207263365
     C    -0.1314109936  -10.1034160737    1.9697908448
     C    -0.4688582288  -11.3453977525    2.5105136062
     C    -1.6220071290  -11.4412432754    3.2836955288
     C    -2.4334386886  -10.3296455606    3.5241661035
     C    -2.0994430791   -9.0876160069    2.9912531019
     H     2.0213193250  -10.7591899238   -0.3525928382
     H     1.6565345715  -11.7516275488    1.0690862583
     H     2.9316671051  -10.5192702640    1.1652251549
     H     2.8673896880   -8.6954388662   -0.2210410334
     H     4.2288031698   -7.2182961104   -1.3046732163
     H     5.6845377580   -5.9107699716   -2.4124527780
     H     5.7816315430   -4.2269114742   -1.8528609060
     H     4.9660592648   -4.6167307215   -3.3826426293
     H     0.4823236610   -5.6277509114    0.1294572435
     H     0.5316197219   -2.8154853808   -1.7001976061
     H     1.2501514590   -2.3092705933   -0.1692126356
     H    -0.0574291435   -3.5006762585   -0.1749227199
     H     2.4977664607   -2.2509113306   -2.2262303778
     H     4.0908224826   -2.8173914882   -2.6678899625
     H     3.3671961432   -2.0126276172    0.1914177758
     H     3.9242364485   -0.8524110715   -1.0132984758
     H     5.9670396083   -2.0598963605   -1.1241554201
     H     5.3048930061   -2.0539636432    1.7070396076
     H     5.6580633589   -0.5684284277    0.8106639761
     H     7.4917172629   -3.0013340390    1.0242169412
     H     7.6636237251   -1.5152743778    1.9626659538
     H     7.9758574473   -0.3457837216   -0.1044406306
     H     9.9079290252   -1.8117592568    0.8343390443
     H    10.0164479468   -0.9346079812   -0.6914449212
     H     9.2539553790   -2.9215260453   -1.9517545447
     H     9.0409478367   -3.8322461979   -0.4738749599
     H    10.5112205413   -2.8285403675   -3.6951670987
     H    12.0421598301   -1.9490909067   -3.8226530772
     H    10.7540008533   -1.3341698957   -2.7772845767
     H    13.7814710477   -3.0224687110   -2.8464104727
     H    13.2139267397   -5.2805507806    0.7791831309
     H    11.2040388614   -5.3796685979    1.7807688524
     H     9.8663424502   -5.4734423727    0.6256046936
     H    10.0969832263   -4.0135968334    1.5950853575
     H    15.5849126179   -4.3691286448   -2.0665257233
     H    15.8182169092   -3.4565311463    2.6877143304
     H    14.3053261382   -4.3695564897    2.4594132474
     H    14.8280399673   -3.1779935292    1.2393679369
     H    16.3831172966   -5.3319933032    3.9615410649
     H    18.3183460632   -6.6134362388    4.8219060192
     H    19.9423909137   -7.6530782086    3.2670409758
     H    19.6522326689   -7.4214809953    0.8076185261
     H     0.1455674418  -12.2235004309    2.3438585927
     H    -1.8899061387  -12.4048236919    3.7072421884
     H    -3.3282012772  -10.4302352061    4.1309341016
     H    -2.7185601105   -8.2138652739    3.1710483890
