41
-1.6021997702202493e+03 frame 61   xyz file generated by TeraChem
     C     2.8572965039   -0.1490600516    1.2860633866
     C     2.9605765178    0.2793899092   -0.1594022840
     O     3.3766377912   -0.8257599537   -0.9983112098
     C     4.7085240515   -1.0560089757   -1.1093646058
     O     5.5261163568   -0.4025751279   -0.5034100627
     C     5.0002678073   -2.1753272145   -2.0420171687
     C     4.1325044906   -2.4981336981   -3.1366980819
     O     2.9949628562   -1.8335419949   -3.3274153745
     C     4.4560844831   -3.5339631790   -4.0302141859
     N     3.6767041036   -3.9934547701   -5.0790118779
     N     2.7117765661   -3.2949643079   -5.4968443080
     C     1.9761972263   -3.9177890865   -6.5288880883
     C     2.0735922359   -5.2724910968   -6.8798417318
     C     1.2959948398   -5.7868825198   -7.9064069055
     C     0.4154780314   -4.9427234027   -8.5839125717
     C     0.2935982069   -3.5983417785   -8.2457605464
     C     1.0724982298   -3.0955466140   -7.2105106035
    Cl    -0.5633230098   -5.5923505532   -9.8729240931
     C     5.6706138249   -4.2787515263   -3.8269235095
     C     6.5371380254   -3.9714535992   -2.7436008592
     C     6.1726401518   -2.9126275951   -1.8525970888
     O     6.9320128040   -2.6140149076   -0.7973726480
     C     7.7362393721   -4.7073210595   -2.5767753720
     C     8.0680036480   -5.7247496401   -3.4389014244
     C     7.2055186208   -6.0389328322   -4.5066059250
     C     6.0415422367   -5.3310924799   -4.6990900261
     H     2.4758266685    0.6863150878    1.8826381025
     H     3.8359542839   -0.4356311330    1.6806206501
     H     2.1679795106   -0.9921409689    1.3942409721
     H     3.6696606787    1.0989264143   -0.2932067879
     H     1.9901773686    0.5698709803   -0.5656191840
     H     2.8277354860   -1.2727960593   -2.5382814499
     H     2.7565362389   -5.9158170928   -6.3347280211
     H     1.3634998230   -6.8355995552   -8.1789279180
     H    -0.4009974483   -2.9580694204   -8.7799812140
     H     0.9959591782   -2.0512800557   -6.9210798137
     H     7.6619374331   -3.2456120523   -0.7078234977
     H     8.4324077757   -4.4788026043   -1.7735212657
     H     8.9921455465   -6.2772205673   -3.2989075144
     H     7.4644182995   -6.8433245263   -5.1898785074
     H     5.3852071434   -5.5664513844   -5.5281802761
