32
-1.7663880339092250e+03 frame 30   xyz file generated by TeraChem
    Cl     3.1505625307    0.0663994957   -1.1571212451
     C     1.4837866238   -0.2398799070   -0.7497929006
     C     1.1963396065   -1.2072391675    0.2258338790
     C    -0.1170578692   -1.4714399177    0.5694618386
     C    -1.1499987624   -0.7652520911   -0.0644588744
     C    -0.8246784654    0.2052742034   -1.0452757354
     C     0.4941120137    0.4807053898   -1.4011646089
     S    -2.2863460264    0.9127845069   -1.6522462410
     C    -3.1886957174   -0.1330082911   -0.5608823193
     N    -2.4883440297   -0.9330133860    0.1861251949
     N    -4.5651282346    0.0265203847   -0.6317843288
     N    -5.2041729460   -0.7277405152    0.1612527965
     C    -6.5809434188   -0.6107200290    0.1299865986
     C    -7.2848432416    0.2611271333   -0.6989933889
     C    -8.6739766678    0.3181101111   -0.6715702565
     C    -9.4011832755   -0.4983107370    0.1888366884
     C    -8.7241022094   -1.4111576665    1.0609482213
     C    -7.3051124934   -1.4631236198    1.0266699767
     C    -6.6733513719   -2.3764642989    1.9014878378
     C    -7.4434138335   -3.1560485334    2.7278302448
     C    -8.8482276765   -3.0217608881    2.6792277507
     N    -9.4772781690   -2.1856526186    1.8814817055
     O   -10.7340572517   -0.4796885632    0.2506988004
     H     2.0090518505   -1.7429513777    0.7051229530
     H    -0.3573536965   -2.2162529123    1.3217989692
     H     0.7427328455    1.2231795327   -2.1518754078
     H    -6.7296570058    0.9030162418   -1.3751040340
     H    -9.2054549011    1.0046449114   -1.3260792080
     H    -5.5908341847   -2.4446019824    1.9035268443
     H    -6.9912598175   -3.8676728227    3.4116851080
     H    -9.4714086900   -3.6339936629    3.3296028345
     H   -11.0829625773    0.1718875844   -0.3807238783
