48
-1.7698376560006509e+03 frame 25   xyz file generated by TeraChem
    Cl    -1.9182787554   -0.4273427673    1.7607738331
     C    -0.2419455014   -0.3395806704    1.2840571831
     C     0.4333106415    0.8730799093    1.3863120763
     C     1.7680156726    0.9343867697    1.0031031654
     C     2.4262949512   -0.1993835050    0.5134549468
     C     1.7256170882   -1.4074868376    0.4271516765
     C     0.3917537241   -1.4846992756    0.8114427111
     C     3.8578044969   -0.1339089193    0.1829699325
     N     4.6671232555    0.4841682572    1.0296707436
     N     5.9282478301    0.3384053381    0.5732113514
     C     5.9599860075   -0.4051936515   -0.5725547875
     C     4.6109720400   -0.7048103801   -0.8886323522
     C     4.4465479955   -1.4174772342   -2.1021854999
     C     5.6148956197   -1.8694999446   -2.7474882682
     C     6.8891768490   -1.5379530325   -2.2718342768
     N     7.0864419837   -0.7888791110   -1.2012999777
     C     5.2195468738   -2.6096798201   -3.9345101495
     O     5.8790152512   -3.1393639744   -4.8237223075
     N     3.8347164762   -2.6235498346   -3.8643558871
     N     3.3716395022   -1.8347621616   -2.8107618820
     C     2.0249950682   -1.4013211529   -2.8366709553
     C     1.0164569869   -2.3452247953   -3.0397998264
     C    -0.3054055669   -1.9207359862   -3.1236124206
     C    -0.6199326641   -0.5687963682   -2.9901624016
     C     0.3955844129    0.3642857537   -2.7866117705
     C     1.7244125575   -0.0435115365   -2.7234185482
     C     7.0082459131    0.8540900273    1.3328082498
     C     6.8834293064    0.9159369209    2.7220446909
     C     7.9268989414    1.4358503400    3.4802818731
     C     9.0942983741    1.8818835844    2.8623349724
     C     9.2081556444    1.8149793835    1.4752651680
     C     8.1663640034    1.3108638515    0.7014530070
     H    -0.0769179272    1.7565376236    1.7565770864
     H     2.3050605498    1.8752775687    1.0776384470
     H     2.2274389714   -2.3036104306    0.0729170104
     H    -0.1471639742   -2.4243761763    0.7464604145
     H     7.7716987463   -1.8932884182   -2.8006893284
     H     3.2448706858   -2.6701989629   -4.6870287143
     H     1.2681937173   -3.3987006564   -3.1233490830
     H    -1.0924391232   -2.6523395484   -3.2825825134
     H    -1.6544485527   -0.2428608453   -3.0497472842
     H     0.1573589378    1.4199830583   -2.6928746201
     H     2.5220667923    0.6820784423   -2.5955184437
     H     5.9746435850    0.5578835914    3.1936734355
     H     7.8276593824    1.4830279236    4.5612383464
     H     9.9098244278    2.2811646385    3.4587817937
     H    10.1103099237    2.1688889299    0.9839166146
     H     8.2489574490    1.2698141127   -0.3779069625
