36
-1.8437059844413016e+03 frame 27   xyz file generated by TeraChem
    Cl    -1.7565961720   -1.1721500766    0.3232942255
     C    -0.0775092189   -0.7134541544    0.2054780293
     C     0.5945190202   -0.2779619578    1.3427805387
     C     1.9321344372    0.0845335300    1.2396955507
     C     2.6081065204    0.0175549603    0.0144341968
     C     1.9037278767   -0.4237567884   -1.1138784402
     C     0.5666947566   -0.7893836516   -1.0262515336
     C     4.0264544060    0.4037086577   -0.0598781136
     C     4.8116601441    0.3907140514   -1.1952142045
     S     6.3978375054    0.9061978428   -0.8318577844
     C     5.9155587390    1.1131147998    0.8286085682
     N     4.6686474736    0.8159402669    1.0760711976
     N     6.9078970321    1.5624678810    1.6845632757
     N     6.5250008711    1.7301637322    2.8795196834
     C     7.4993524753    2.1726694857    3.7629885544
     C     8.8297759763    2.4013659036    3.4239871642
     C     9.7508849277    2.8437006598    4.3699920198
     C     9.3641872511    3.0718181839    5.6850923847
     C     8.0068334738    2.8499825847    6.0836820953
     C     7.0736343401    2.3964343780    5.1118500701
     C     5.7434728806    2.1894331061    5.5454477309
     C     5.4190507013    2.4298934695    6.8570769635
     C     6.4271006356    2.8794409466    7.7377929067
     N     7.6759209908    3.0855747926    7.3784320574
     O    10.2112601955    3.4973223545    6.6281164194
     H     0.0804070149   -0.2224459343    2.2971189488
     H     2.4651416439    0.4247658173    2.1215060557
     H     2.3941695042   -0.4892372608   -2.0804794627
     H     0.0308295881   -1.1304792108   -1.9062264312
     H     4.5424269259    0.1098783716   -2.2045641153
     H     9.1467113184    2.2268871569    2.4010224203
     H    10.7859784869    3.0151825723    4.0842103966
     H     5.0025688421    1.8436188664    4.8325771828
     H     4.4077914395    2.2808804134    7.2227056284
     H     6.1837719419    3.0748192315    8.7813711475
     H    11.0940507028    3.6233433600    6.2419645837
