46
-2.0536956686579520e+03 frame 49   xyz file generated by TeraChem
    Cl    -1.1102640742    4.9183050247   -2.6446500051
     C     0.4499389084    4.3907018899   -2.0704418521
     C     0.8954182762    3.1072868256   -2.3889611973
     C     2.1346055216    2.6840074864   -1.9328392162
     C     2.9354228254    3.5399939059   -1.1581578351
     C     2.4629300015    4.8223363874   -0.8486166596
     C     1.2236436746    5.2553863542   -1.3020117230
     N     4.1976337541    3.2172947856   -0.6429835228
     N     4.6425175772    2.0734500044   -0.9868381983
     C     5.8388755822    1.7492725602   -0.4753340946
     S     6.6980800676    2.8110192946    0.6583681264
     C     7.9270300540    1.5650997523    0.7605497712
     N     7.7241920318    0.4849198350    0.0301212987
     C     6.5646203641    0.5703268741   -0.6761776636
     C     6.2007038077   -0.5516857401   -1.5431937133
     C     6.8328280486   -1.7900809517   -1.3521553681
     C     6.5437228820   -2.8920026174   -2.1426443592
     C     5.6026330526   -2.7760289094   -3.1760162308
     C     4.9718600062   -1.5386328054   -3.3844392524
     C     5.2642232262   -0.4479891715   -2.5856971649
     N     5.2539000228   -3.8199318961   -4.0352222842
     C     5.7073550109   -5.1117563812   -4.0452723283
     O     6.4837209284   -5.5638154875   -3.2085484719
     C     5.1768884534   -5.9632229251   -5.1547878480
     C     4.7713094641   -5.4485239027   -6.3917819283
     C     4.3122560590   -6.3053334742   -7.3884225945
     C     4.2509426823   -7.6782757262   -7.1576951155
     C     4.6632538108   -8.1971414990   -5.9302701281
     C     5.1320675667   -7.3445963517   -4.9375426118
     N     8.9994481007    1.7145773636    1.5370369317
     H     0.2733198589    2.4473968501   -2.9857816983
     H     2.4890099712    1.6857404597   -2.1684767102
     H     3.0869852816    5.4769744900   -0.2470267514
     H     0.8627933731    6.2502883171   -1.0617543871
     H     7.5639287559   -1.8869197371   -0.5561158256
     H     7.0351760364   -3.8388023704   -1.9675192737
     H     4.2517428514   -1.4351083239   -4.1931181778
     H     4.7705226195    0.4982216525   -2.7747838218
     H     4.5341854615   -3.5896433720   -4.7079165677
     H     4.8414731552   -4.3843932000   -6.6029051598
     H     4.0093147139   -5.8986987014   -8.3492503054
     H     3.8888062402   -8.3443011722   -7.9362982946
     H     4.6203445594   -9.2674587247   -5.7481620757
     H     5.4642929633   -7.7359794493   -3.9808224140
     H     9.1772190904    2.5627832944    2.0534108769
     H     9.7089661903    0.9943963709    1.5358028764
