33
-1.8907806067433671e+03 frame 39   xyz file generated by TeraChem
    Cl    -2.0468747775    0.6098861994   -0.8192733391
     C    -0.3264789729    0.4678935315   -0.6192216480
     C     0.4214753580   -0.1991459149   -1.5870879413
     C     1.7932884850   -0.3103725104   -1.4231005141
     C     2.4304481334    0.2410333265   -0.2972174336
     C     1.6509037598    0.9082544495    0.6621406695
     C     0.2774004509    1.0232343331    0.5061134620
     C     3.8679717595    0.1060695513   -0.1574385796
     C     4.7991718472   -0.5213346483   -0.9711035317
     C     4.9542110663   -1.2722970880   -2.1854119623
     O     4.2161050753   -1.6769245281   -3.0543608916
     O     6.3386463751   -1.5393984654   -2.2746639108
     C     6.9958014637   -0.9998137475   -1.2026164833
     C     6.0928742411   -0.3728627492   -0.3893343824
     C     5.9526771189    0.3871276950    0.8459785033
     O     6.7574103156    0.7679054134    1.6838877301
     N     4.5721369100    0.6320512203    0.9051426070
     C     8.4241295949   -1.1869934018   -1.1364878586
     C     9.1471829423   -0.6605945806   -0.0521554373
     C    10.5197872797   -0.8371146375    0.0245262451
     C    11.1714468348   -1.5421325518   -0.9868025875
     C    10.4754217620   -2.0719369727   -2.0712655175
     C     9.1019321906   -1.8929063475   -2.1431902275
    Cl    12.8933008136   -1.7650192673   -0.8921519336
     H    -0.0645971367   -0.6262569965   -2.4581831034
     H     2.3778133209   -0.8315524806   -2.1763458798
     H     2.0995235178    1.3491422333    1.5467546152
     H    -0.3185725896    1.5394500538    1.2513680806
     H     4.1734659185    1.1576669700    1.6717286725
     H     8.6272718605   -0.1126943293    0.7304793155
     H    11.0817422927   -0.4328554333    0.8601474409
     H    11.0020029874   -2.6172423315   -2.8476489760
     H     8.5509576503   -2.3025608124   -2.9833757091
