93
-4.0048901442908200e+03 frame 144   xyz file generated by TeraChem
     O     1.2143838361   -1.9302668764    2.8957995157
    Cl     2.2439465280   -0.8735121694    3.0142433648
     O     2.6141288650   -0.7042177911    4.4364997330
     O     3.4427108050   -1.2541763720    2.2360660424
     O     1.7015013311    0.4021880448    2.4923005696
     O     2.1214741349   -0.1288078159   -3.3809888012
    Cl     3.0716360620    0.9703561409   -3.0822195928
     O     4.4584526551    0.4725878052   -3.2371916368
     O     2.8408917077    2.0856476877   -4.0240536181
     O     2.8655993155    1.4362741505   -1.6941171537
     C    -0.2641899670   -0.5084914295   -0.5713283446
     N    -0.4895632467   -1.8877128192   -0.1721947507
     C     0.4994121325   -2.8222468371   -0.2979290847
     C     1.7109217243   -2.5513962144   -0.9047618806
     C     2.8547328958   -3.3758010175   -1.0465669638
     C     3.9108676460   -2.9100263569   -1.8701790774
     C     5.0632770259   -3.6233302962   -2.0690721712
     C     6.1226712549   -3.1107554122   -2.9923699976
     N     5.2358676476   -4.8356088033   -1.4402686622
     C     4.2497829442   -5.3370716822   -0.6298063308
     C     3.0842959216   -4.6328371240   -0.4373827551
     C     4.4411786296   -6.6680563151    0.0266525903
     C     6.5042227967   -5.5585076993   -1.5858389082
     C     7.5347253842   -5.1365878468   -0.5323915433
     O     8.7074020580   -5.9074647950   -0.6882586332
     C     9.6580275361   -5.3810750650   -1.5898942471
     C    10.6780499376   -4.5399490290   -0.8154109527
     N    11.7350838048   -4.0225445398   -1.6925475117
     C    12.8482683389   -4.7886250528   -1.9429077554
     C    13.0569566766   -6.0543651969   -1.1732815001
     C    13.7813535538   -4.3685890998   -2.8580949954
     C    13.6426329329   -3.1526686948   -3.5714164588
     C    12.5168949553   -2.3711778830   -3.2135762503
     C    11.5828960929   -2.8009420719   -2.3059125109
     C    10.4088207949   -1.9430671566   -1.9571943763
     C    14.5839270263   -2.6350207716   -4.4981975408
     C    15.6363156272   -3.2747087271   -5.1329331667
     S    17.0414652363   -2.3490580332   -5.6453742855
     C    17.8084325615   -3.7835688639   -6.2853551902
     C    16.9904648052   -4.9019646124   -6.0841695976
     N    15.7712347081   -4.5843550489   -5.4842310504
     C    14.6476684285   -5.5049388859   -5.5835206373
     C    17.4048241600   -6.1662011561   -6.4984041623
     C    18.6460501785   -6.2805196782   -7.1182357751
     C    19.4579539584   -5.1617527610   -7.3236280871
     C    19.0449589118   -3.8976347794   -6.9093005830
     S    -0.0339262642   -4.3638633644    0.3444147590
     C    -1.5906151993   -3.6949266021    0.7779218474
     C    -1.6629321021   -2.3427493988    0.4173040552
     C    -2.8321453678   -1.6219182322    0.6668541503
     C    -3.8968822754   -2.2758987695    1.2789684650
     C    -3.8148363574   -3.6231470320    1.6401085736
     C    -2.6527809378   -4.3480284276    1.3903019298
     H     0.5868900471   -0.0991718195   -0.0188342023
     H    -1.1485503962    0.0826074100   -0.3438149625
     H    -0.0646994498   -0.4487627315   -1.6448757615
     H     1.7968113775   -1.5731814715   -1.3661554286
     H     3.8077175484   -1.9583844287   -2.3814207603
     H     5.8337918633   -2.1209220925   -3.3501877243
     H     6.2437275995   -3.7661777148   -3.8628859413
     H     7.0966046946   -3.0240024429   -2.5010234869
     H     2.3619314273   -5.0757923256    0.2361461358
     H     5.3449184436   -6.7047715433    0.6429329296
     H     4.5087793851   -7.4703673622   -0.7172441587
     H     3.5849555332   -6.8772440096    0.6699476344
     H     6.8914825262   -5.3845622590   -2.5902716599
     H     6.3158729471   -6.6280903506   -1.4989134439
     H     7.1537535187   -5.3375026228    0.4733800444
     H     7.7457612065   -4.0609274146   -0.5979567681
     H     9.1834349530   -4.7833721408   -2.3790553967
     H    10.1536313205   -6.2297764463   -2.0715423583
     H    11.1313736594   -5.1451351339   -0.0306998339
     H    10.1842989223   -3.7012311057   -0.3247583144
     H    12.2268394067   -6.7577521107   -1.2900995040
     H    13.1743151873   -5.8501825019   -0.1025355778
     H    13.9660740958   -6.5446345521   -1.5256495295
     H    14.6691835720   -4.9767178286   -2.9795067182
     H    12.3692685298   -1.4020740338   -3.6787028978
     H    10.4343884449   -1.0350381395   -2.5622391497
     H    10.4334911421   -1.6472836701   -0.9017224104
     H     9.4547020506   -2.4464464133   -2.1424034860
     H    14.5415193188   -1.5602255762   -4.6562701144
     H    14.6997793916   -6.0090849292   -6.5516458441
     H    13.7196706475   -4.9356292498   -5.5301506075
     H    14.6642562109   -6.2537159179   -4.7869548208
     H    16.7826140168   -7.0402229586   -6.3346215540
     H    18.9857640996   -7.2593952540   -7.4434841795
     H    20.4230974638   -5.2753598521   -7.8081659943
     H    19.6706870615   -3.0241854285   -7.0651225178
     H    -2.9229280391   -0.5759380474    0.3948614958
     H    -4.8090977520   -1.7204133244    1.4764837264
     H    -4.6595698020   -4.1109527528    2.1170347253
     H    -2.5751289722   -5.3959051414    1.6642094154
