27
-1.0254910165253575e+03 frame 33   xyz file generated by TeraChem
     C     1.2914149244    0.6044451345    0.3495158464
     C     2.7621377900    0.4097073863    0.2112033738
     N     3.5899245283    1.4398787684    0.2425917956
     N     4.8314352271    0.9057404406    0.0916063883
     C     4.8041381376   -0.4664984051   -0.0387852320
     C     3.4758578600   -0.8052815597    0.0369824128
     C     6.0013025141   -1.3261510686   -0.2269549289
     C     5.9064653284    1.7726374047    0.0826908070
     N     7.1408146616    1.4134515887   -0.0298949635
     C     7.9586974973    2.5293900226   -0.0069315145
     C     7.2919943203    3.7662192065    0.1297564636
     S     5.5692323706    3.4932510287    0.2337931735
     C     7.9880593916    4.9718982145    0.1662104769
     C     9.3746788487    4.9274500501    0.0628784838
     C    10.0494126197    3.7058898512   -0.0718977219
     C     9.3537595049    2.5049922668   -0.1076611397
     H     1.0552793132    1.6670563376    0.4471212632
     H     0.9083500314    0.0791135091    1.2315200790
     H     0.7610975979    0.2062746605   -0.5225293450
     H     3.0684524319   -1.8051930919   -0.0277885350
     H     6.5581104420   -1.0482736561   -1.1273494435
     H     5.6767414494   -2.3655365353   -0.3184872815
     H     6.6942719926   -1.2448252863    0.6164366633
     H     7.4663852831    5.9186041532    0.2708896653
     H     9.9398135110    5.8548701853    0.0878704285
     H    11.1330001072    3.6991742115   -0.1500073044
     H     9.8679365312    1.5539523917   -0.2116601924
