29
-1.1927469235854639e+03 frame 12   xyz file generated by TeraChem
     C     2.0543306031   -0.6277669345   -1.0053081399
     C     0.6198325697   -0.4223009796   -0.6621075651
     C    -0.1801222842   -1.1931094802    0.1483912245
     N    -1.4715318814   -0.7969566961    0.3109115989
     C    -1.6975696613    0.2947117265   -0.3744650840
     S    -0.3211827923    0.8933964810   -1.2625228201
     N    -2.8606940948    1.0364493419   -0.5014048715
     N    -3.8356179037    0.5899716992    0.1705621021
     C    -5.0228472999    1.3025019685    0.0572757927
     C    -5.2061133520    2.4205389797   -0.7493693875
     C    -6.4347863680    3.0758804727   -0.8098334750
     C    -7.5153872472    2.6278716803   -0.0616027751
     C    -7.3773783001    1.4811076808    0.7841712461
     C    -6.1209902925    0.8177405873    0.8385451908
     C    -6.0267240561   -0.3124578261    1.6841746129
     C    -7.1280643719   -0.7105479708    2.3993435892
     C    -8.3269339240    0.0240205857    2.2699231979
     N    -8.4605115509    1.0801116268    1.4969897828
     O    -8.7149670161    3.2208054574   -0.0883603330
     H     2.4215114879   -1.5306081231   -0.5089691477
     H     2.6714929489    0.2176857031   -0.6811348864
     H     2.1977541459   -0.7468018838   -2.0850782043
     H     0.1712473884   -2.0883394664    0.6528044732
     H    -4.3723248158    2.7817716409   -1.3426625587
     H    -6.5563475329    3.9467673451   -1.4501077616
     H    -5.0842844064   -0.8452213995    1.7515171227
     H    -7.0907180199   -1.5738055729    3.0566202278
     H    -9.2087590463   -0.2801164179    2.8324351777
     H    -8.6853728243    3.9831596795   -0.6895882426
