25
-5.3529898048911753e+02 frame 26   xyz file generated by TeraChem
     C     0.9939365839    0.0886344233   -0.2606248449
     C     2.4877001559    0.0104830355   -0.1092426425
     C     3.2534077463    1.1897297038   -0.0971926388
     C     4.6165343599    1.1653911078    0.0605266133
     C     5.2893666400   -0.0694930127    0.1803569260
     C     4.5543372867   -1.3055454819    0.1388954845
     C     3.1193346374   -1.2299273660    0.0332873457
     N     2.3267828866   -2.3710539045    0.0044167125
     C     5.3258923936   -2.5151145223    0.1826030778
     C     4.7692016576   -3.9091742228    0.0638987496
     C     6.6955514009   -2.3991901002    0.3160671210
     C     7.3051189961   -1.1364361595    0.3966788590
     N     6.6456491904   -0.0041076003    0.3205267320
     H     0.6750658683    1.1246867290   -0.4038336786
     H     0.4665731278   -0.2958663131    0.6246426065
     H     0.6374940995   -0.4918322507   -1.1222141135
     H     2.7360344387    2.1412290971   -0.2005296482
     H     5.2092767605    2.0744131874    0.0889533628
     H     2.6464811353   -3.1448081345    0.5673087414
     H     1.3491379781   -2.1901032443    0.1936266109
     H     4.0766356984   -4.0093978937   -0.7766079233
     H     4.2412351247   -4.2192111675    0.9754148560
     H     5.5879311241   -4.6187499223   -0.0815539997
     H     7.3135775498   -3.2920480327    0.3480913645
     H     8.3868810261   -1.0673556632    0.5134439841
