49
-1.6335272937516133e+03 frame 103   xyz file generated by TeraChem
     C     0.8481824802    5.9914160341    1.6835767105
     C    -0.3714800815    5.2242029446    1.2592365537
     C    -0.5333398987    3.8769926913    1.6229617271
     C    -1.6562849071    3.1555144461    1.2517120529
     C    -2.6670718809    3.7718648810    0.4935171839
     C    -2.5099485868    5.1111992226    0.1175994137
     C    -1.3792162309    5.8242954642    0.4986148399
     N    -3.8454819856    3.1508272757    0.0587945266
     N    -4.0228701616    1.9620541149    0.4778410842
     C    -5.1460825418    1.3687258726    0.0351101061
     S    -6.2380860602    2.1805804983   -1.1035308821
     C    -7.1986170529    0.7140690968   -1.0982331087
     N    -6.7613967038   -0.2630150478   -0.3303962530
     C    -5.6141481322    0.0848054483    0.3200076452
     C    -5.0063327043   -0.9019341516    1.2161926502
     C    -5.4361649364   -2.2361742156    1.1484198672
     C    -4.9139018539   -3.2198183653    1.9748063818
     C    -3.9321301532   -2.8848678473    2.9185380096
     C    -3.4960337488   -1.5526226956    2.9979709885
     C    -4.0229500518   -0.5800816758    2.1667140359
     N    -3.3461761907   -3.8033625336    3.7924225246
     C    -3.6937672228   -5.1077773069    4.0176155546
     O    -4.6372613281   -5.6631340691    3.4612622911
     C    -2.8524681680   -5.8282890821    5.0223529893
     C    -3.4402497007   -6.9122170798    5.6836542086
     C    -2.7203639947   -7.6340040129    6.6283892717
     C    -1.3980173654   -7.2902160782    6.9090253290
     C    -0.7994944279   -6.2245774255    6.2395278297
     C    -1.5222331397   -5.4930897519    5.3007006981
     N    -8.3235877066    0.6223147797   -1.8124535319
     H     1.7666207588    5.4445459367    1.4412193323
     H     0.8521461418    6.1564695250    2.7684626190
     H     0.8923493170    6.9696408258    1.1959608885
     H     0.2444075129    3.3886393859    2.2069017043
     H    -1.7619219043    2.1125338808    1.5341027461
     H    -3.2915868391    5.5797144043   -0.4746720795
     H    -1.2752117653    6.8646461334    0.1989957849
     H    -6.1974263282   -2.5042041567    0.4230889725
     H    -5.2632979578   -4.2400404474    1.8996960364
     H    -2.7408968213   -1.2786730918    3.7312812901
     H    -3.6751750930    0.4427573211    2.2561321909
     H    -2.6289472249   -3.4187221160    4.3938481972
     H    -4.4677939747   -7.1733524472    5.4492729456
     H    -3.1896865696   -8.4664726352    7.1454494225
     H    -0.8325400165   -7.8562637689    7.6444067901
     H     0.2356259564   -5.9642973562    6.4422772840
     H    -1.0269298861   -4.6842883311    4.7693732374
     H    -8.5906833908    1.3317911405   -2.4783830773
     H    -8.8014642479   -0.2677839343   -1.8489077283
