33
-8.5601268559771324e+02 frame 50   xyz file generated by TeraChem
     C     2.4234658292    0.0892453895    0.1882048397
     C     0.9250903677    0.1563661453    0.2608657574
     C     0.2050421612    1.0296335684   -0.5711456223
     C    -1.1786693265    1.0846591227   -0.5363870161
     C    -1.8877566013    0.2560939787    0.3477194852
     C    -1.1807397644   -0.6144608605    1.1840224741
     C     0.2075656227   -0.6610231069    1.1400341877
     N    -3.2888858027    0.2207942801    0.4793611645
     N    -3.9155206834    1.0055555178   -0.2794117028
     C    -5.3098191398    0.9790150152   -0.1562493187
     C    -6.0079381352    0.1716273831    0.7295909604
     C    -7.4029382113    0.2020336446    0.7950232877
     C    -8.1343254133    1.0440334160   -0.0282122857
     C    -7.4600953403    1.8953095459   -0.9589122712
     C    -6.0381055155    1.8578017295   -1.0175387550
     C    -5.4123663077    2.7162988514   -1.9525300911
     C    -6.1836468953    3.5288697993   -2.7445246950
     C    -7.5878684480    3.4842947943   -2.6019529887
     N    -8.2140181405    2.7041161938   -1.7477109977
     O    -9.4747588950    1.1094604000   -0.0027641375
     H     2.8561507630    1.0699586223   -0.0346523776
     H     2.7440744176   -0.5946674875   -0.6086065690
     H     2.8525734096   -0.2767172218    1.1259082996
     H     0.7497921921    1.6766996502   -1.2553463409
     H    -1.7252143167    1.7644850431   -1.1821576431
     H    -1.7412817000   -1.2468481655    1.8673342553
     H     0.7454030757   -1.3394452398    1.7980569587
     H    -5.4500103559   -0.4932727291    1.3809004866
     H    -7.9276932885   -0.4402250486    1.4987001322
     H    -4.3302710693    2.7167311448   -2.0272115586
     H    -5.7339814274    4.1980743242   -3.4716555242
     H    -8.2135073737    4.1234370232   -3.2239864216
     H    -9.8134742405    0.4897768135    0.6639513800
