28
-1.1508713239749745e+03 frame 29   xyz file generated by TeraChem
     C    -3.5180760221    0.1444353066    0.0970593204
     C    -2.0512031449   -0.0719115000    0.0745316136
     N    -1.1866932684    0.9673855925    0.0281316973
     C     0.1262684801    0.5317358540    0.0156347363
     C     0.0974156447   -0.8773842626    0.0560603365
     C    -1.2943059678   -1.2590242608    0.0934893334
     N    -1.6827521686   -2.5661825202    0.1383545131
     N    -2.9325655416   -2.7928229895    0.1739507658
     C    -3.2401385458   -4.1483243290    0.2165087693
     N    -4.5221472033   -4.4930109431    0.2633396734
     N    -4.4542719596   -5.8357887987    0.2936387819
     C    -3.1696117531   -6.2389239359    0.2643838705
     N    -2.3646372181   -5.1958753976    0.2149280446
     S    -2.5888026220   -7.8899342480    0.2878798020
     C     1.3035457243   -1.5867147647    0.0550591322
     C     2.4933216286   -0.8712084335    0.0145078500
     C     2.4991704513    0.5347087441   -0.0256688011
     C     1.3135233284    1.2595652776   -0.0256044531
     H    -3.7537729732    1.2120994217    0.0707379848
     H    -3.9581197645   -0.2991110456    0.9963002684
     H    -3.9934601367   -0.3507042190   -0.7561748619
     H    -1.4731551461    1.9380091534    0.0059377636
     H    -5.2969823396   -6.3947402859    0.3347887242
     H    -3.7983978172   -8.4761393408    0.3277601584
     H     1.3040210320   -2.6727229290    0.0861714691
     H     3.4397193255   -1.4055101283    0.0133966086
     H     3.4472870727    1.0644690606   -0.0567818396
     H     1.3094942875    2.3455128461   -0.0561715152
