13
-3.2339013128923466e+02 frame 28   xyz file generated by TeraChem
     C     0.8860682238    0.1243022925    0.1667337346
     C     2.3901773387   -0.0203790581   -0.0808969004
     C     3.0816150202    1.2964772252    0.2707621914
     O     3.7148862550    1.4716698908    1.2880565130
     O     2.9346049306    2.3113561668   -0.5962340720
     N     2.9112106796   -1.1498553962    0.6655575597
     H     0.4538946833    0.9487040876   -0.4090432234
     H     0.6946232879    0.3096287783    1.2299583305
     H     0.3834302632   -0.8038698049   -0.1188862856
     H     2.5551590786   -0.2099369239   -1.1499354734
     H     2.4415296858    2.0268197942   -1.3843225348
     H     2.8786955444   -0.9137819974    1.6567193380
     H     3.9018754264   -1.2561851602    0.4550299201
