128
-4.6582588420304637e+03 frame 286   xyz file generated by TeraChem
     O     0.5901108183   -2.0296770012   -2.4621518782
    Cl     1.7530446113   -2.4043112755   -3.3059068455
     O     1.3115111684   -2.5296526485   -4.7115282481
     O     2.7922169017   -1.3563366656   -3.2022088990
     O     2.3035381385   -3.6954009389   -2.8423422833
     O     3.8167828785    4.0632502623    3.1244131610
    Cl     5.2246206461    3.9880310119    2.6675886710
     O     6.0406426966    3.3143772421    3.6998880295
     O     5.2966211995    3.2202524931    1.4026321559
     O     5.7373554660    5.3574311556    2.4416374867
     O     2.9859904315   -1.6030775750    0.6713743967
     C     2.3050980577   -0.7544383641    1.2550319509
     N     2.2560531588    0.5348840313    0.8225540669
     C     1.4980608986    1.6244404256    1.4143890512
     C     0.5604840896    2.2487350585    0.3795978307
     N     1.2991040118    2.6333890462   -0.8105241990
     C     2.0524321357    1.5352109994   -1.3968589762
     C     2.9970984372    0.9329101677   -0.3652690674
     C     1.3276564054    3.8637852142   -1.3904042220
     O     1.9693129539    4.0702974371   -2.4255677923
     C     0.5847899428    5.0044225373   -0.7212828990
     C     1.3531616275    5.6135907641    0.4623129022
     C     2.8059788517    5.9896104219    0.1631337504
     C     3.0177645839    7.0052791827   -0.9591290565
     C     2.4240617513    8.3705686199   -0.6158927345
     N     2.8238892715    9.4139538763   -1.5770777293
     C     3.9956737502   10.1002637549   -1.3827811282
     C     4.7769910141    9.8804790390   -0.1254804121
     C     4.4260818569   11.0102746929   -2.3182154849
     C     3.6955053396   11.2741069019   -3.5009601208
     C     2.4688370549   10.5786669429   -3.6183930359
     C     2.0518130246    9.6625275203   -2.6846682288
     C     0.7537000573    8.9397499785   -2.8544371067
     C     4.0504871277   12.2394618613   -4.4827431462
     C     5.2629237331   12.8722111529   -4.6914683240
     S     5.3039187035   14.4606509723   -5.4496991912
     C     7.0474874680   14.5196375618   -5.3351334482
     C     7.5341221860   13.3563613222   -4.7265829486
     N     6.5279612182   12.4388862490   -4.4216339844
     C     6.8613398361   11.0398103691   -4.1971688566
     C     8.9007479364   13.1885873357   -4.5125027724
     C     9.7604392108   14.2035592311   -4.9246302821
     C     9.2727620208   15.3604181261   -5.5376135254
     C     7.9064587766   15.5296232606   -5.7510430547
     C     1.4667559423   -1.1518375539    2.4565262899
     C     0.0132994306   -1.4758366877    2.0787454617
     C    -0.1046952248   -2.6188745752    1.0752912023
     C    -1.5514927668   -2.9280200198    0.7028920644
     C    -1.6063082676   -4.0254958587   -0.3566089061
     N    -2.9819618484   -4.3794406369   -0.7487040944
     C    -3.6600133969   -5.3508774489   -0.0577697565
     C    -2.9497541425   -6.1264515857    1.0064990384
     C    -4.9712361520   -5.6280768889   -0.3631882155
     C    -5.6669123139   -4.9345471890   -1.3812932622
     C    -4.8985081274   -3.9870494622   -2.0979058472
     C    -3.5917694962   -3.7095996856   -1.7804981157
     C    -2.8188562132   -2.6892834788   -2.5535941511
     C    -7.0042994611   -5.1981418516   -1.7875931402
     C    -8.0025628553   -5.8964542387   -1.1335296797
     S    -9.2921212903   -6.6530063056   -2.0636362069
     C   -10.0450050783   -7.2622048515   -0.6083117031
     C    -9.3012862769   -6.8878752070    0.5174389376
     N    -8.2002223517   -6.0904285366    0.2027042775
     C    -7.5776670212   -5.2668594054    1.2282778628
     C    -9.7022049539   -7.2826202776    1.7922893580
     C   -10.8591688087   -8.0486191830    1.9107319952
     C   -11.6035044368   -8.4137228667    0.7862738372
     C   -11.2026874584   -8.0210774059   -0.4889263847
     H     2.1998007564    2.3874412488    1.7777615869
     H     0.9095804413    1.2731117906    2.2612782723
     H     0.0610573029    3.1097400541    0.8223927663
     H    -0.2065363670    1.5129410428    0.0985989323
     H     2.6071014719    1.9233084230   -2.2511791698
     H     1.3538728187    0.7641014735   -1.7462495305
     H     3.7555068045    1.6733908301   -0.0782346057
     H     3.4891788179    0.0490155824   -0.7706476590
     H    -0.4149222178    4.7002154207   -0.3926910400
     H     0.4439448999    5.7555239581   -1.5037061776
     H     1.3566076495    4.9098234497    1.3035052958
     H     0.7952875336    6.4930880635    0.8079998142
     H     3.3711175129    5.0816183606   -0.0817478730
     H     3.2566913168    6.3807416152    1.0842432235
     H     2.5912131506    6.6309957706   -1.8963865893
     H     4.0952198672    7.1171663255   -1.1310449892
     H     2.7483724854    8.6864680985    0.3766760009
     H     1.3350718305    8.3383677229   -0.5896396149
     H     5.0358133367    8.8278348254    0.0235488134
     H     4.2146415190   10.2146503182    0.7543636741
     H     5.7041192471   10.4546312092   -0.1720769311
     H     5.3253732911   11.5695512889   -2.0924077410
     H     1.8344011889   10.7547209001   -4.4809105363
     H     0.3134649773    9.2108969129   -3.8156287273
     H     0.0405856885    9.2112822557   -2.0673062061
     H     0.8798371961    7.8529361297   -2.8321810611
     H     3.2297139159   12.6103466388   -5.0918113839
     H     7.7052201729   10.7790721557   -4.8407894614
     H     6.0047169882   10.4234903621   -4.4701591709
     H     7.1318516299   10.8492115735   -3.1550342683
     H     9.2862065653   12.2964081701   -4.0295169261
     H    10.8280378769   14.0896775875   -4.7614008159
     H     9.9618257947   16.1396144262   -5.8495261395
     H     7.5205828257   16.4261676318   -6.2265115440
     H     1.4906773627   -0.3903180675    3.2423278255
     H     1.9431575321   -2.0501980068    2.8606787681
     H    -0.4769962885   -0.5812137901    1.6718060794
     H    -0.5288060057   -1.7355154238    2.9972163843
     H     0.3670259900   -3.5192265078    1.4935548996
     H     0.4545944999   -2.3732989188    0.1645751186
     H    -2.0389056477   -2.0215993328    0.3218787186
     H    -2.1143447095   -3.2350555835    1.5937354112
     H    -1.1161860611   -4.9301961235    0.0047019389
     H    -1.0642450103   -3.7158410553   -1.2511253579
     H    -2.5408402545   -5.4749392735    1.7847964558
     H    -2.1217937872   -6.7119801220    0.5900051023
     H    -3.6501095053   -6.8190525235    1.4767050186
     H    -5.4458105310   -6.4429464127    0.1690639840
     H    -5.3519356429   -3.4423292888   -2.9196515654
     H    -3.4747091590   -2.2252192729   -3.2924436388
     H    -1.9726434697   -3.1408145203   -3.0829031546
     H    -2.4174882015   -1.9016116089   -1.9090558151
     H    -7.2515396540   -4.8911869102   -2.8009281305
     H    -8.3521469534   -4.9405285357    1.9267707569
     H    -7.1344359272   -4.3894607067    0.7567831832
     H    -6.8069804314   -5.8149654640    1.7772789163
     H    -9.1248127074   -7.0106759417    2.6700584095
     H   -11.1822413464   -8.3674949372    2.8973491609
     H   -12.5020555759   -9.0123511541    0.9024745915
     H   -11.7754415249   -8.3017011143   -1.3675537812
