40
-1.7636356801933493e+03 frame 45   xyz file generated by TeraChem
     C     1.0182225238    0.6065770268   -1.0998882310
     S    -0.3328272413   -0.5968985620   -1.0802720628
     C     0.5753441426   -2.0865318372   -1.0572647281
     N     1.8809183285   -2.1700073181   -1.0603075375
     N     2.3348300289   -3.4486460303   -1.0393242014
     C     1.3729945570   -4.3340436876   -1.0234943273
     S    -0.2290086012   -3.6262909523   -1.0256740869
     N     1.4362088312   -5.7124592585   -0.9839398892
     N     2.6310400837   -6.1677015912   -1.0754396197
     C     2.7420468726   -7.5119837734   -1.0270297419
     C     4.0133372813   -8.1281647518   -1.1073797645
     C     5.3142893318   -7.4692195145   -1.2345935238
     C     5.6396359483   -6.3905851903   -0.3986320587
     C     6.8616314074   -5.7417560394   -0.5379076006
     C     7.7688847140   -6.1537665205   -1.5131319376
     C     7.4505025610   -7.2208151486   -2.3518881272
     C     6.2323176044   -7.8776422908   -2.2144709769
     N     3.8458944469   -9.4719737319   -1.0819695978
     C     2.4880579025   -9.7727015790   -0.9971446393
     C     1.7570991740   -8.5675958055   -0.9543800712
     C     0.3612176773   -8.6174521591   -0.8699973907
     C    -0.2577058554   -9.8620248072   -0.8260551820
     C     0.4894068851  -11.0484566189   -0.8655763019
     C     1.8775738181  -11.0231089168   -0.9534390005
     C     4.8787111239  -10.4888979800   -1.0301929056
     H     0.5342253241    1.5859465624   -1.1088711980
     H     1.6284165394    0.4852965813   -1.9966031405
     H     1.6355751536    0.5051943916   -0.2056120476
     H     4.9355477951   -6.0738730449    0.3635750624
     H     7.1071495273   -4.9126400372    0.1199536198
     H     8.7221911472   -5.6433256264   -1.6201940717
     H     8.1493415984   -7.5399807995   -3.1200520820
     H     5.9780357552   -8.6920667541   -2.8870967662
     H    -0.2183478953   -7.7026210726   -0.8395274606
     H    -1.3408577940   -9.9170986891   -0.7597539507
     H    -0.0224930234  -12.0061053248   -0.8318691513
     H     2.4530772237  -11.9428636231   -0.9935875522
     H     5.8288331167  -10.0292472119   -0.7604566650
     H     4.9785598341  -10.9899085410   -1.9978568793
     H     4.6101371654  -11.2257202169   -0.2695349947
