37
-1.7243779949802183e+03 frame 46   xyz file generated by TeraChem
     C     2.1695108919    1.0793941464    1.0525187952
     S     2.9856084740    2.6773313944    0.8183358726
     C     3.4725103054    2.5352170822   -0.8506252765
     N     3.2460383455    1.4945323815   -1.6108957339
     N     3.7188539205    1.6426515271   -2.8732071998
     C     4.3051485712    2.7945065085   -3.0697527392
     S     4.3186574122    3.8229225033   -1.6535826840
     N     4.9009647892    3.3040961677   -4.2070579757
     N     4.8374068838    2.5109321207   -5.2105752406
     C     5.3962677053    2.9743242015   -6.3497865196
     C     5.3959341113    2.1885974875   -7.5280994693
     N     5.9467045714    2.9268527169   -8.5159591818
     C     6.3334485469    4.1724228657   -8.0516746688
     C     6.0041402734    4.2476630531   -6.6814928297
     C     6.2912981551    5.4253957645   -5.9803115837
     C     6.8990229630    6.4737955013   -6.6624564226
     C     7.2225069907    6.3707430228   -8.0244606478
     C     6.9428601838    5.2141557988   -8.7434615270
     C     4.9041522073    0.8364800282   -7.7709035478
     C     4.4013776940    0.4926948841   -9.0367017499
     C     3.9480132040   -0.7967716659   -9.2876423095
     C     3.9896092987   -1.7613645503   -8.2818371529
     C     4.4859976298   -1.4283317475   -7.0220856656
     C     4.9425172317   -0.1410689873   -6.7639468325
     H     1.7964456318    1.0922513049    2.0793147555
     H     2.8808220970    0.2612657339    0.9263684234
     H     1.3372160432    0.9685146898    0.3554902291
     H     6.1316213047    2.5844271858   -9.4499500949
     H     6.0467431623    5.5113545200   -4.9284847654
     H     7.1295818783    7.3925654422   -6.1300807825
     H     7.6976585622    7.2084511895   -8.5272780430
     H     7.1853773599    5.1245837687   -9.7983883671
     H     4.3370031283    1.2436187510   -9.8200669307
     H     3.5544641051   -1.0460850935  -10.2690874946
     H     3.6358684514   -2.7696396579   -8.4791692693
     H     4.5260948603   -2.1780487365   -6.2366892496
     H     5.3365067933    0.1131829729   -5.7865323303
