30
-1.5328569465747228e+03 frame 34   xyz file generated by TeraChem
     C     1.8300615384   -0.1985128395    0.2951288110
     S     2.6539477743    1.1202914682    1.2206610391
     C     3.4100969835    1.9909231897   -0.0888218034
     N     3.3223734911    1.6654210974   -1.3528177392
     N     3.9998998757    2.5095803980   -2.1705019469
     C     4.6051427079    3.4722585243   -1.5260407233
     S     4.3663173012    3.4112232012    0.2078179529
     N     5.3696583277    4.5173370129   -2.0064780938
     N     5.5815534963    4.4504389484   -3.2678429404
     C     6.2992331287    5.4566551743   -3.8159539207
     C     6.8549866743    6.6196207042   -3.2276964152
     C     6.8289063949    7.0971218621   -1.8260510316
     N     7.4712738600    7.3137290596   -4.2017753559
     C     7.3622446323    6.6786432213   -5.4304011728
     C     6.6249213120    5.4968739356   -5.2247708574
     C     6.3634898240    4.6552869676   -6.3095075951
     C     6.8452336639    5.0210404667   -7.5607682914
     C     7.5792909710    6.2055875664   -7.7434105323
     C     7.8505408772    7.0563640152   -6.6776777758
     H     1.3100804372   -0.7984669793    1.0455884720
     H     2.5618704327   -0.8135143129   -0.2313451558
     H     1.1108562274    0.2209744387   -0.4104350106
     H     7.3032935415    6.3643662764   -1.1645117069
     H     5.7953459171    7.1996832134   -1.4791078624
     H     7.3424839781    8.0578791090   -1.7302876279
     H     7.9477916710    8.1947796607   -4.0501655568
     H     5.7961339439    3.7390234666   -6.1729848748
     H     6.6519775370    4.3800139882   -8.4166784638
     H     7.9418526579    6.4621625648   -8.7348741232
     H     8.4168830489    7.9738358808   -6.8098313014
