31
-1.6079252819761241e+03 frame 45   xyz file generated by TeraChem
     C     3.5786837833    0.0957029343   -1.4041795320
     S     3.7416754273   -1.0612545489   -0.0099873875
     C     4.0832184592   -2.5700827382   -0.8140900736
     C     3.3585070647   -3.6999115972   -0.7650136861
     N     3.8987420233   -4.8090839960   -1.4400589791
     N     4.9630490016   -4.3957205589   -2.2611737971
     S     5.6224395790   -2.8793844575   -1.6622241094
     N     4.6841452824   -4.2778986989   -3.6198291497
     N     3.7854658784   -5.0384740553   -4.0181545220
     C     3.5776749424   -5.0257768722   -5.4105939132
     C     4.4514005741   -4.4803781298   -6.3341801847
     C     4.1786231352   -4.5290563265   -7.7072173507
     C     3.0224711195   -5.1228508029   -8.1812809511
     C     2.0954392705   -5.7072265585   -7.2632711833
     C     2.3853636203   -5.6609135373   -5.8694580538
     C     1.4425745601   -6.2547835724   -4.9960024458
     C     0.3154186085   -6.8381953519   -5.5164178164
     C     0.1271017525   -6.8245177484   -6.9160262144
     N     0.9738144287   -6.2847812166   -7.7659795978
     O     2.7109547865   -5.1902157364   -9.4880806657
     H     3.4093279803    1.0814992976   -0.9628990771
     H     2.7266065995   -0.1753376921   -2.0310101806
     H     4.4949998996    0.1210737511   -1.9980587726
     H     2.4069136297   -3.8190880843   -0.2590231860
     H     4.1793350845   -5.5859908414   -0.8437226756
     H     5.3685177937   -4.0142295224   -5.9885517699
     H     4.8856641636   -4.0982497610   -8.4124844439
     H     1.6294918524   -6.2378866957   -3.9273758091
     H    -0.4260405796   -7.3038793094   -4.8745307060
     H    -0.7647227959   -7.2813962175   -7.3437580220
     H     3.4114176705   -4.7605554921  -10.0048847653
