36
-1.4213518211004616e+03 frame 35   xyz file generated by TeraChem
     C     1.6682676148    0.5864722701   -1.1179305436
     O     2.1662961016    0.1934241944    0.1508693701
     C     3.1678724827    0.9180536819    0.6980123496
     C     3.7235938982    2.0660830124    0.0949678061
     C     4.7500769480    2.7579455650    0.7138952547
     C     5.2416688809    2.3172613810    1.9488966549
     C     4.6698799874    1.1596071343    2.5397673814
     C     3.6400976456    0.4569532796    1.9296202649
     S     5.4688409422    0.8468787521    4.0502797696
     C     6.4724779298    2.2695578995    3.7636245623
     N     6.2499522114    2.9162778094    2.6600364408
     N     7.3975375520    2.5335068092    4.7637622733
     N     8.0798922010    3.5809274009    4.5579883796
     C     9.0266189294    3.8911344359    5.5191516906
     C     9.2865844384    3.1331794271    6.6580811684
     C    10.2623659157    3.5185910386    7.5735953754
     C    11.0056962280    4.6764020300    7.3753199861
     C    10.7771071935    5.4892876462    6.2185797871
     C     9.7804098784    5.0881581615    5.2889776927
     C     9.5832704919    5.9160770408    4.1596481127
     C    10.3472760214    7.0465949881    4.0137216493
     C    11.3104590844    7.3503278016    5.0004412950
     N    11.5269809248    6.6097450426    6.0661989683
     O    11.9494711223    5.0864068287    8.2283128863
     H     0.8937608694   -0.1390028752   -1.3698276282
     H     2.4557892636    0.5601012477   -1.8796962192
     H     1.2288455353    1.5898932127   -1.0797654449
     H     3.3500165314    2.4171479159   -0.8600932115
     H     5.1792525429    3.6420735478    0.2519538516
     H     3.1982914235   -0.4294583189    2.3732815619
     H     8.7147459090    2.2264633951    6.8268401099
     H    10.4497946846    2.9119689564    8.4562449574
     H     8.8308244055    5.6408482748    3.4288004175
     H    10.2220508096    7.7037420023    3.1586956163
     H    11.9238798195    8.2445717603    4.8984083710
     H    12.0080604434    4.4635498667    8.9719379932
