46
-9.7617395960417457e+02 frame 47   xyz file generated by TeraChem
     C     0.9480504051   -0.0935839386    0.4177176297
     O     2.1554025816    0.6292864288    0.2284860964
     C     2.9704039870    0.8078052890    1.2880664266
     C     2.7003012147    0.3077273876    2.5691119803
     C     3.5930092652    0.5254497616    3.6059052262
     C     4.7845730132    1.2471713801    3.4106156268
     C     5.0352404422    1.7382019019    2.1249085629
     C     4.1572380020    1.5379342121    1.0598031141
     C     4.4499600953    2.0725924327   -0.2767602160
     N     5.5187910418    2.7180075134   -0.5346051717
     C     5.6928551068    3.1914859860   -1.8902133703
     C     6.9649436089    2.5901529220   -2.4888291185
     N     7.1959738992    3.0169590686   -3.8605822587
     C     7.6405956488    4.3982213814   -3.9328824924
     C     8.1654629574    2.1505020720   -4.5074374526
     C     5.7585123811    1.5020008904    4.4665569513
     C     5.6573130553    1.1428410324    5.7615951531
     C     6.6494241159    1.4051579423    6.7997768798
     C     7.8837234173    2.0383707888    6.5774800961
     C     8.7495794198    2.2352083457    7.6431211241
     N     8.4963851215    1.8580155164    8.9038973246
     C     7.3222853321    1.2539429457    9.1152396595
     C     6.3850617233    1.0087488415    8.1195499581
     H     0.4560621059   -0.1061870040   -0.5553294726
     H     0.3013812272    0.4029542390    1.1496193534
     H     1.1492395806   -1.1210314871    0.7407497544
     H     1.7943485081   -0.2563976712    2.7599637202
     H     3.3536256515    0.1189379093    4.5844446466
     H     5.9437334147    2.3025247642    1.9289788618
     H     3.6897946860    1.8893440700   -1.0463328948
     H     5.7809395262    4.2851167123   -1.8510025173
     H     4.8367856754    2.9474370282   -2.5401732799
     H     6.8523843822    1.4992276171   -2.4882133869
     H     7.8254473811    2.8251750016   -1.8323698884
     H     6.8853103228    5.0731500810   -3.5196222311
     H     7.7985961666    4.6755082111   -4.9804975948
     H     8.5885889857    4.5655472427   -3.3860500208
     H     7.8081260085    1.1152823621   -4.4943299955
     H     9.1598574615    2.1770643757   -4.0217045987
     H     8.2928418821    2.4565323800   -5.5516595632
     H     6.6450029046    2.0433229520    4.1371163287
     H     4.7704284689    0.6126774683    6.1058206055
     H     8.1774982093    2.3753914982    5.5881827796
     H     9.7071797558    2.7256834919    7.4738075187
     H     7.1164857175    0.9466441423   10.1397206899
     H     5.4501883705    0.5115005925    8.3651857540
