39
-1.3778151117395030e+03 frame 34   xyz file generated by TeraChem
     C    -1.0912665639   -1.8104904963   -0.3758939828
     C    -1.0915322589   -2.7055705213   -1.6182042557
     C     0.1824663837   -1.0093000801   -0.1997094489
     C     1.4801313723   -1.4775886547   -0.1224579018
     C     2.4959833139   -0.5231319976    0.0418785307
     N     3.8563813024   -0.6996469114    0.1438217471
     C     4.3573373860    0.5138730933    0.2868432046
     N     3.3875486500    1.4804411772    0.2863743806
     C     2.1758027460    0.8549057229    0.1269682786
     C     0.8727743712    1.3418344235    0.0476233181
     C    -0.1157928864    0.3790795762   -0.1204115015
     C    -1.5649646752    0.5407052254   -0.2474571878
     C    -2.1491544511   -0.7295329816   -0.4007847597
     C    -3.5243212346   -0.8548957727   -0.5494368792
     C    -4.3154657536    0.2968017644   -0.5425472028
     C    -3.7340056642    1.5581593641   -0.3872206349
     C    -2.3545945071    1.6907591779   -0.2378737302
     C     5.7846003697    0.8001820698    0.4297201395
     C     6.7037755268   -0.2437116743    0.2541534969
     C     8.0675476168   -0.0229997407    0.3812282978
     C     8.5197576131    1.2582711568    0.6876277434
     C     7.6306603390    2.3126126059    0.8689218494
     C     6.2667639664    2.0781842253    0.7400378385
    Cl    10.2313991998    1.5455238696    0.8488235606
     H    -1.2458591417   -2.4515982872    0.5054121770
     H    -0.9468365741   -2.1090580806   -2.5254567338
     H    -2.0406398038   -3.2448985448   -1.7073582485
     H    -0.2863697128   -3.4455977256   -1.5601584755
     H     1.7184166683   -2.5365003506   -0.1852635830
     H     3.5261547605    2.4791778273    0.3495505933
     H     0.6472085417    2.4027977446    0.1106056465
     H    -3.9839174899   -1.8336575332   -0.6686211002
     H    -5.3928733194    0.2114739050   -0.6584889143
     H    -4.3636987331    2.4442141208   -0.3831735128
     H    -1.9059851869    2.6741725391   -0.1179813276
     H     6.3364997059   -1.2359856342    0.0132099149
     H     8.7733490632   -0.8355418383    0.2415422065
     H     7.9967755807    3.3049417781    1.1114838847
     H     5.5866329964    2.9103248699    0.8964238043
