42
-1.2551065402087770e+03 frame 50   xyz file generated by TeraChem
     C    -1.1618459486   -1.7112203945   -0.2382618030
     C    -1.2147491379   -2.6439158901   -1.4515541438
     C     0.1373633170   -0.9415053210   -0.1185632074
     C     1.4222752825   -1.4442962726   -0.0593702087
     C     2.4682504007   -0.5139134641    0.0454831169
     N     3.8246720538   -0.7266312147    0.1137771144
     C     4.3638037879    0.4756410500    0.2007356892
     N     3.4224085898    1.4696084949    0.1968784267
     C     2.1897010053    0.8751159633    0.0926797626
     C     0.8986334510    1.3966809351    0.0313592211
     C    -0.1199704574    0.4574480975   -0.0783958803
     C    -1.5669244389    0.6554544883   -0.1750763467
     C    -2.1895774759   -0.6019782991   -0.2728982751
     C    -3.5710819131   -0.6931475685   -0.3832135738
     C    -4.3297194387    0.4800889126   -0.3934214103
     C    -3.7100462971    1.7288398859   -0.2933943924
     C    -2.3242115543    1.8271093486   -0.1826725438
     C     5.8036238985    0.7216245763    0.2884111787
     C     6.6802503396   -0.3571643479    0.1135177199
     C     8.0534113114   -0.1724593460    0.1866498319
     C     8.5688126824    1.0981437716    0.4356227499
     C     7.7074387276    2.1810922590    0.6149815950
     C     6.3344152248    1.9946509571    0.5430397244
     C    10.0462952576    1.3278948510    0.5204107700
     F    10.7542062039    0.2111035678    0.2813217232
     F    10.4578565973    2.2563737613   -0.3657777133
     F    10.4145560547    1.7729441466    1.7388447940
     H    -1.3128043028   -2.3196166792    0.6664499642
     H    -1.0722443219   -2.0800945989   -2.3797959383
     H    -2.1805024250   -3.1578075975   -1.5044535615
     H    -0.4297143300   -3.4045904336   -1.3863025387
     H     1.6303989749   -2.5108495184   -0.0933873256
     H     3.5921068019    2.4653992946    0.2186002842
     H     0.7038684329    2.4650599786    0.0634935172
     H    -4.0598658487   -1.6620160765   -0.4591652300
     H    -5.4117098858    0.4216745522   -0.4795298402
     H    -4.3148324896    2.6320174996   -0.3018738569
     H    -1.8462169674    2.8008998288   -0.1053958709
     H     6.2706866939   -1.3421257839   -0.0841423785
     H     8.7217372194   -1.0153540637    0.0457492538
     H     8.1082899910    3.1712087205    0.8131016686
     H     5.6840486820    2.8506223688    0.6969968019
