42
-9.5764718090563315e+02 frame 61   xyz file generated by TeraChem
     C    -1.1004298991   -1.8066509371   -0.4014271997
     C    -1.1017600954   -2.6932760209   -1.6498648506
     C     0.1720855382   -1.0038674613   -0.2231777445
     C     1.4715447144   -1.4700200737   -0.1521493218
     C     2.4863368207   -0.5153431370    0.0144848527
     N     3.8479057961   -0.6900733765    0.1107993799
     C     4.3485892555    0.5238398485    0.2582492925
     N     3.3753915592    1.4879765099    0.2665502355
     C     2.1635906196    0.8615913790    0.1082113155
     C     0.8596881491    1.3461882973    0.0357971356
     C    -0.1285119702    0.3826994661   -0.1349375970
     C    -1.5783415741    0.5425795743   -0.2571822769
     C    -2.1607546229   -0.7278477472   -0.4168068135
     C    -3.5359693486   -0.8550181130   -0.5627822167
     C    -4.3296137570    0.2950061341   -0.5470000691
     C    -3.7501177330    1.5563915147   -0.3854042370
     C    -2.3704773984    1.6908096509   -0.2386805335
     C     5.7744718541    0.8178230495    0.3958891912
     C     6.7050952769   -0.2142220542    0.2041473911
     C     8.0650050122    0.0289755602    0.3234978421
     C     8.5496411419    1.3054245029    0.6394155232
     C     7.6176677126    2.3296847333    0.8288524575
     C     6.2517175564    2.0954677023    0.7123260499
     C    10.0234740382    1.5561981711    0.7866907910
     H    -1.2517287705   -2.4543505647    0.4756643202
     H    -0.9584205907   -2.0904083050   -2.5531506775
     H    -2.0505872396   -3.2326871240   -1.7418109801
     H    -0.2959365376   -3.4330371952   -1.5978361321
     H     1.7112335453   -2.5282569111   -0.2219488197
     H     3.5143432709    2.4862691769    0.3334146853
     H     0.6322863919    2.4064202461    0.1054194757
     H    -3.9938677572   -1.8339981640   -0.6868860577
     H    -5.4071393945    0.2081983525   -0.6607994771
     H    -4.3814581520    2.4412476664   -0.3743669809
     H    -1.9236440021    2.6744465343   -0.1138871545
     H     6.3447478287   -1.2074477699   -0.0456016190
     H     8.7686863239   -0.7853570396    0.1646430712
     H     7.9661722318    3.3304449150    1.0736220850
     H     5.5653577810    2.9214705207    0.8787346129
     H    10.5910192745    1.0740738566   -0.0166527596
     H    10.3971452817    1.1472525700    1.7340764248
     H    10.2478390006    2.6268323062    0.7752185380
