66
-1.6464490378218729e+03 frame 53   xyz file generated by TeraChem
     C     1.6536360594   -1.0796642623   -0.9455129705
     C     0.4902239800   -0.3475955701   -0.2706898926
     C     1.6765469730   -2.5695084616   -0.6798969855
     C     0.6871880903   -3.5086972778   -0.9301563365
     C     0.9080339654   -4.8579045343   -0.6117333127
     C     2.1341214416   -5.2324208335   -0.0321016170
     C     3.1293077623   -4.2965088400    0.2228753556
     C     2.8977587131   -2.9605538901   -0.1059169525
     C     3.7449369260   -1.7812645261    0.0456210756
     C     3.0162993236   -0.6491393495   -0.4467353450
     C     3.5627639906    0.6035740961   -0.4200320455
     C     4.8747233792    0.7745260681    0.1001395432
     N     5.4196174464    2.0048950226    0.1298531835
     C     6.6441434366    2.1359635451    0.6186033098
     C     7.2500273534    3.4642707816    0.6581989719
     C     6.5652215241    4.5847198513    0.1908956701
     C     7.1554654622    5.8484416747    0.2346938201
     C     8.4341361267    6.0063125185    0.7453495660
     C     9.1558489914    4.9000820918    1.2253908547
     C     8.5598267405    3.6099792082    1.1830425316
     C     9.2898912139    2.4749809788    1.6691660511
     C     8.7227724966    1.1754911843    1.6385227840
     C     7.3744283796    1.0006332506    1.1043766053
     N     6.8503132767   -0.2144056953    1.0807797899
     C     5.6046884766   -0.3608941147    0.5860370626
     C     5.0160680582   -1.6486086935    0.5506385171
     C     9.4551069621    0.0902498413    2.1158009045
     C    10.7418900561    0.2700493049    2.6249551811
     C    11.3090397382    1.5340182224    2.6623448138
     C    10.6009680279    2.6521866534    2.1895819212
     C    11.1706209766    3.9679489720    2.2189604607
     C    10.4798143884    5.0426597651    1.7576645625
     C    -0.1724039590   -5.8503110253   -0.8338274295
     C    -1.4277120543   -5.5894667762   -0.3149113168
     C    -2.4942671608   -6.5008558241   -0.4580558511
     C    -2.3034654982   -7.6844044962   -1.1265299250
     C    -1.0432604107   -7.9905417302   -1.6987792656
     C     0.0408773160   -7.0649998891   -1.5664999862
     C     1.2690094936   -7.3791401329   -2.2068897433
     C     1.4281438432   -8.5530896622   -2.9052875754
     C     0.3657475956   -9.4785403668   -3.0056356009
     C    -0.8436435785   -9.1967342719   -2.4187872533
     H     1.5908944927   -0.9000552591   -2.0290929736
     H     0.5141330501   -0.4990444401    0.8135481880
     H    -0.4672847353   -0.7179853497   -0.6511656466
     H     0.5417488484    0.7273712884   -0.4722267572
     H    -0.2567359078   -3.2151436397   -1.3838362158
     H     2.2960259810   -6.2715687906    0.2410449410
     H     4.0658298888   -4.6059217038    0.6801141370
     H     3.0330407422    1.4805995363   -0.7831876377
     H     5.5647946378    4.4566191821   -0.2090829245
     H     6.6073930508    6.7111749124   -0.1336980685
     H     8.8952650276    6.9904581582    0.7799544609
     H     5.5880459785   -2.4930161250    0.9256661798
     H     9.0057427651   -0.8970117748    2.0848717430
     H    11.2994064838   -0.5868039305    2.9928798363
     H    12.3112559754    1.6761321279    3.0594997299
     H    12.1737451626    4.0848497223    2.6218191939
     H    10.9195189090    6.0367008477    1.7827070302
     H    -1.5871009787   -4.6693948430    0.2417692500
     H    -3.4617143269   -6.2635041720   -0.0237973559
     H    -3.1146435929   -8.4009366761   -1.2334587344
     H     2.0909209641   -6.6723783821   -2.1530109338
     H     2.3771127531   -8.7681402552   -3.3895209642
     H     0.5053136115  -10.4048648971   -3.5565310972
     H    -1.6755753214   -9.8925212799   -2.5020188242
