72
-1.7999085649214212e+03 frame 46   xyz file generated by TeraChem
     C     2.1562648450   -1.4893654837   -1.8295049599
     C     1.0646618029   -0.4160314670   -1.8732799633
     C     1.7853219431   -2.7030823597   -1.0052444791
     C     0.6902104802   -3.5424564639   -1.1492241188
     C     0.5203971704   -4.6183996466   -0.2659868208
     C     1.4668151647   -4.8308604282    0.7503670017
     C     2.5671405372   -3.9937408327    0.9008884620
     C     2.7222837003   -2.9243404789    0.0189183731
     C     3.7537561674   -1.8921776690   -0.0585905348
     C     3.4311311787   -1.0304149879   -1.1574325888
     C     4.2240389991    0.0386618029   -1.4691540850
     C     5.3819766856    0.2915016693   -0.6852320049
     N     6.1660178758    1.3434111224   -0.9853534149
     C     7.2358022427    1.5612579963   -0.2352071942
     C     8.0957683939    2.6993014333   -0.5468785571
     C     7.8128994130    3.5452672322   -1.6179929018
     C     8.6411030020    4.6312076144   -1.9043424866
     C     9.7580911438    4.8841392902   -1.1238374647
     C    10.0754116282    4.0532429928   -0.0355335024
     C     9.2365468137    2.9442342115    0.2595466955
     C     9.5534121103    2.0894555795    1.3670667711
     C     8.7364397234    0.9744510975    1.6845560720
     C     7.5547513748    0.7030887876    0.8695415491
     N     6.7945649191   -0.3372849752    1.1723107986
     C     5.7030245059   -0.5703978819    0.4155165077
     C     4.8675321841   -1.6741556004    0.7167744031
     C     9.0687384878    0.1598815469    2.7655866732
     C    10.1976227113    0.4318929719    3.5397242092
     C    11.0049244045    1.5183731583    3.2419267238
     C    10.7022137102    2.3615157924    2.1589693162
     C    11.5254644389    3.4900316894    1.8342966579
     C    11.2259874995    4.2986933437    0.7846125727
     C    -0.6504696810   -5.5291304020   -0.3983232212
     C    -0.7270178326   -6.4283693168   -1.4844346530
     C     0.2983171347   -6.5237408385   -2.4759266343
     C     0.1984079771   -7.4069575386   -3.5163506401
     C    -0.9312414048   -8.2624356886   -3.6374794130
     C    -1.9284603254   -8.2143740661   -2.7038890794
     C    -1.8607926095   -7.3091134520   -1.6021308242
     C    -2.8676223741   -7.2691585985   -0.6362004142
     C    -2.8040745280   -6.3872800373    0.4436827774
     C    -1.6804655659   -5.4944487436    0.5673723889
     C    -1.6698893265   -4.5829897011    1.6684449746
     C    -2.6824952982   -4.5709885485    2.5887720335
     C    -3.7800405606   -5.4679960898    2.4730932775
     C    -3.8378712330   -6.3465110085    1.4275790658
     H     2.3781931120   -1.7975276240   -2.8619350493
     H     0.8169452908   -0.0744433127   -0.8627630626
     H     0.1558145396   -0.8128821905   -2.3370720450
     H     1.3955060614    0.4472943154   -2.4598476123
     H    -0.0410856204   -3.3736793003   -1.9367122275
     H     1.3321969326   -5.6696249587    1.4286564824
     H     3.2889355802   -4.1755507732    1.6933928826
     H     4.0028235154    0.7082904809   -2.2962853025
     H     6.9363997924    3.3439446539   -2.2247577795
     H     8.4062368774    5.2802362196   -2.7433733875
     H    10.4043260905    5.7304313289   -1.3442060741
     H     5.1310861340   -2.3130805010    1.5552329560
     H     8.4326818638   -0.6890860179    2.9939268266
     H    10.4421581068   -0.2127194298    4.3793966395
     H    11.8846624527    1.7323748212    3.8440328392
     H    12.3993594890    3.6829075667    2.4517872888
     H    11.8552636429    5.1521540358    0.5445652305
     H     1.1694165760   -5.8821480683   -2.3908165016
     H     0.9917764179   -7.4610903822   -4.2571576266
     H    -0.9930314513   -8.9563762123   -4.4714531458
     H    -2.7940820677   -8.8685959476   -2.7790788714
     H    -3.7197409163   -7.9400073371   -0.7271055833
     H    -0.8419103127   -3.8879993522    1.7645676701
     H    -2.6524820537   -3.8667786722    3.4160143727
     H    -4.5731306918   -5.4453326447    3.2156515510
     H    -4.6753590661   -7.0322860248    1.3213418168
