80
-1.9336859223555475e+03 frame 72   xyz file generated by TeraChem
     C     1.6301508356   -1.0760246880   -0.8423571606
     C     0.4532531498   -0.3248586369   -0.2133452882
     C     1.6499805066   -2.5560913554   -0.5241310858
     C     0.6668481602   -3.5038272320   -0.7600968741
     C     0.8741977505   -4.8415727504   -0.3793970920
     C     2.0933416486   -5.1882202944    0.2354166374
     C     3.0869590393   -4.2460127374    0.4651980094
     C     2.8624134077   -2.9226940706    0.0846168281
     C     3.7055422938   -1.7389775502    0.2074049640
     C     2.9829802375   -0.6247522599   -0.3340186695
     C     3.5258348480    0.6295926503   -0.3370186132
     C     4.8297527435    0.8204693856    0.1980880168
     N     5.3700905859    2.0524898878    0.2025951488
     C     6.5889017292    2.2008622065    0.7029177788
     C     7.3175348809    1.0828670983    1.2214582598
     N     6.7963217820   -0.1343805219    1.2275536116
     C     5.5561739945   -0.2984431803    0.7261851358
     C     4.9695884725   -1.5875666662    0.7248719971
     C     8.6623261455    1.2758961391    1.7555235651
     C     9.3802846163    0.1763752234    2.2534353267
     C    10.6561525843    0.3341262190    2.7618863110
     C    11.2375196546    1.6069197343    2.7794939647
     C    10.5405076908    2.6995823907    2.2921619493
     C     9.2407657740    2.5662342112    1.7690138478
     C     8.4890851933    3.7144444062    1.2475056673
     C     7.1883293495    3.5314086459    0.7224458077
     C     6.4703938894    4.6301839124    0.2219619747
     C     7.0168570831    5.9001151383    0.2347921025
     C     8.3023881511    6.0914320558    0.7533607842
     C     9.0217337490    5.0169990482    1.2485551533
     C    -0.1657696927   -5.8634524765   -0.6131845163
     C     0.1686054406   -7.2052738226   -0.8546536328
     C    -0.8045431084   -8.1686548608   -1.0746358466
     C    -2.1646328147   -7.8282976144   -1.0505220149
     C    -2.5117909336   -6.4914495164   -0.8080396736
     C    -1.5301082032   -5.5337466399   -0.6002818330
     N    -3.1554546225   -8.8048265217   -1.2616071330
     C    -2.9879748278  -10.1116188952   -0.7457865573
     C    -2.4771334869  -10.3064697405    0.5438789122
     C    -2.3129303979  -11.5939934352    1.0446725421
     C    -2.6702680539  -12.7033875998    0.2792507630
     C    -3.1873567201  -12.5103756117   -1.0011431164
     C    -3.3379166086  -11.2271766351   -1.5171727265
     C    -4.3282514026   -8.4847665396   -1.9856776737
     C    -4.2544150919   -7.7091222590   -3.1496504886
     C    -5.4110922459   -7.3923148945   -3.8548261563
     C    -6.6533674873   -7.8561916909   -3.4240809769
     C    -6.7272000557   -8.6361609468   -2.2708284130
     C    -5.5779167976   -8.9426472420   -1.5489998708
     H     1.5867750177   -0.9322178182   -1.9322183001
     H     0.4571112303   -0.4419174374    0.8754362192
     H    -0.4963341998   -0.7094870078   -0.5995389839
     H     0.5068414476    0.7433447045   -0.4477193638
     H    -0.2569674130   -3.2206051463   -1.2586915268
     H     2.2526849268   -6.2123337489    0.5611058734
     H     4.0162194150   -4.5391663248    0.9474886385
     H     2.9995522915    1.4936112615   -0.7348284691
     H     5.5376489858   -2.4183257311    1.1347890812
     H     8.9076700543   -0.8000602592    2.2283273605
     H    11.2023158585   -0.5240685184    3.1433904634
     H    12.2397938154    1.7437983442    3.1762886595
     H    11.0204539203    3.6714881245    2.3190047277
     H     5.4755143981    4.4567591093   -0.1749160743
     H     6.4512471627    6.7422072933   -0.1542263141
     H     8.7427192339    7.0846954287    0.7694012931
     H    10.0151017234    5.1999042823    1.6429820895
     H     1.2132712395   -7.4993582089   -0.9107471882
     H    -0.5112415863   -9.1939077887   -1.2798815041
     H    -3.5591316510   -6.2076665101   -0.7662602642
     H    -1.8360571243   -4.5137522905   -0.3830884672
     H    -2.2139476330   -9.4449253160    1.1507410211
     H    -1.9157648992  -11.7278334351    2.0476209553
     H    -2.5478615234  -13.7071510803    0.6764742155
     H    -3.4640837748  -13.3655880369   -1.6123993762
     H    -3.7286812653  -11.0825223892   -2.5202755544
     H    -3.2874226457   -7.3590797760   -3.4993743250
     H    -5.3358668778   -6.7895245646   -4.7562390773
     H    -7.5538471651   -7.6129957336   -3.9811542962
     H    -7.6891968533   -8.9993505016   -1.9182668430
     H    -5.6441570341   -9.5377565388   -0.6426807061
