82
-2.0098383440794232e+03 frame 38   xyz file generated by TeraChem
     C     1.7830796390   -1.1231424389   -0.8123879506
     C     0.6831063699   -0.3377294424   -0.0925333464
     C     1.7576231155   -2.6101337868   -0.5322979292
     C     0.7175569288   -3.5053646865   -0.7227699793
     C     0.8912950828   -4.8622852510   -0.3993941792
     C     2.1359350154   -5.2846221092    0.1061401230
     C     3.1835904483   -4.3926328665    0.2975164792
     C     2.9910537847   -3.0471979130   -0.0190239956
     C     3.8887555503   -1.9016175233    0.0881919203
     C     3.1825297427   -0.7445140493   -0.3800919308
     C     3.7760961301    0.4864145053   -0.3872040069
     C     5.1127666333    0.6120443378    0.0795806106
     N     5.7020962871    1.8215593791    0.0772272974
     C     6.9461357132    1.9132573320    0.5241731923
     C     7.6496448007    0.7578116551    1.0013143810
     N     7.0833589800   -0.4388650035    1.0034459009
     C     5.8182760739   -0.5458748025    0.5489744327
     C     5.1832125109   -1.8120148941    0.5425000851
     C     9.0163110976    0.8921558763    1.4999142521
     C     9.7225416848   -0.2115298497    1.9745296523
     C    11.0260454723   -0.0695773420    2.4521669576
     C    11.6365213031    1.1745882717    2.4602899803
     C    10.9562580427    2.3103658722    1.9886842799
     C     9.6281247337    2.1718705618    1.5008348334
     C     8.9264252140    3.3256178625    1.0168687650
     C     7.5995282035    3.2191305119    0.5272677151
     C     6.9428469742    4.3564777362    0.0603185117
     C     7.5778573625    5.5989595769    0.0704059460
     C     8.8734437944    5.7187733362    0.5476063781
     C     9.5676576976    4.5945049934    1.0264166919
     C    10.9079612175    4.6977129892    1.5257020426
     C    11.5714633191    3.6058452207    1.9867824403
     C    -0.2152785947   -5.8231511153   -0.5782376251
     C     0.0210163813   -7.1566840436   -0.9450789708
     C    -1.0196510753   -8.0578311520   -1.1183555331
     C    -2.3492614495   -7.6620596476   -0.9109408969
     C    -2.5964529769   -6.3329302434   -0.5373439294
     C    -1.5500011855   -5.4357620856   -0.3840448416
     N    -3.4102539943   -8.5715651954   -1.0728853589
     C    -3.2589493584   -9.9282315641   -0.7029442219
     C    -2.5723832300  -10.2766744184    0.4674849113
     C    -2.4272683947  -11.6138454214    0.8229259370
     C    -2.9779036371  -12.6222551604    0.0328539637
     C    -3.6693459315  -12.2764597593   -1.1273036592
     C    -3.8033066997  -10.9430757248   -1.5009423187
     C    -4.6490959458   -8.1269104940   -1.5964203803
     C    -4.6840311943   -7.2874370496   -2.7165120399
     C    -5.9029546128   -6.8493138125   -3.2243180526
     C    -7.1011843789   -7.2542896111   -2.6372043347
     C    -7.0675813035   -8.0975899263   -1.5273539566
     C    -5.8524219791   -8.5261673318   -1.0022873830
     H     1.6772989497   -0.9497071117   -1.8936756815
     H     0.7500084682   -0.4813433104    0.9910240302
     H    -0.3055531409   -0.6706045837   -0.4250690228
     H     0.7695321184    0.7325685954   -0.3066046738
     H    -0.2270090471   -3.1669751164   -1.1419972996
     H     2.2710405345   -6.3275488464    0.3795406547
     H     4.1309878801   -4.7422346229    0.7003178794
     H     3.2648207203    1.3803014073   -0.7354713946
     H     5.7380655982   -2.6744326441    0.9021071502
     H     9.2395330890   -1.1832701180    1.9672798511
     H    11.5624339470   -0.9403947974    2.8187545551
     H    12.6518998060    1.2871091615    2.8327368624
     H     5.9285940204    4.2585933492   -0.3122908592
     H     7.0512448029    6.4751744775   -0.2975186470
     H     9.3692928203    6.6864906134    0.5566572946
     H    11.3822836155    5.6760064294    1.5262095590
     H    12.5871001895    3.6929102935    2.3651167415
     H     1.0375590263   -7.4903270523   -1.1372825490
     H    -0.8035171252   -9.0763187069   -1.4266513759
     H    -3.6159016704   -6.0069700842   -0.3540313245
     H    -1.7754988897   -4.4208081973   -0.0671622105
     H    -2.1547492465   -9.4960438871    1.0967587195
     H    -1.8917548275  -11.8658579519    1.7347280254
     H    -2.8692359695  -13.6649523142    0.3179334860
     H    -4.0987037351  -13.0506803712   -1.7581320199
     H    -4.3306278273  -10.6827545419   -2.4142375791
     H    -3.7527103746   -6.9828778300   -3.1854281443
     H    -5.9142906828   -6.1982447948   -4.0946642257
     H    -8.0515707964   -6.9164359058   -3.0409470807
     H    -7.9936763050   -8.4154865128   -1.0552923719
     H    -5.8286677858   -9.1728296961   -0.1297796471
