41
-1.1226815324480604e+03 frame 43   xyz file generated by TeraChem
     C    -1.1071724295   -1.7490739722   -0.4703276890
     C    -1.0989356705   -2.6350081339   -1.7193009724
     C     0.1739329410   -0.9665673412   -0.2679849683
     C     1.4616798387   -1.4529834005   -0.1711084070
     C     2.4872501407   -0.5116747685    0.0173327014
     N     3.8399008302   -0.7074786197    0.1431013325
     C     4.3554810143    0.4988035864    0.3018738685
     N     3.3998397163    1.4792546768    0.2869908981
     C     2.1847115210    0.8712515296    0.1035591396
     C     0.8889514872    1.3763152061    0.0045782988
     C    -0.1073889703    0.4273381632   -0.1851617180
     C    -1.5520184761    0.6077315218   -0.3337042075
     C    -2.1496963098   -0.6538505228   -0.5039183044
     C    -3.5241917876   -0.7605592562   -0.6731216063
     C    -4.3000467632    0.4011912413   -0.6696157540
     C    -3.7050325302    1.6542743734   -0.4977690231
     C    -2.3265705791    1.7681664688   -0.3280142155
     C     5.7829675023    0.7547803812    0.4745401069
     C     6.6715945650   -0.3302174216    0.3945853634
     C     8.0332297900   -0.1427222691    0.5515089412
     C     8.5087553900    1.1450343536    0.7890621153
     C     7.6546185538    2.2399154416    0.8749951280
     C     6.2920001619    2.0396999491    0.7186044181
     N     9.9376017184    1.3520594828    0.9505129533
     O    10.6733019966    0.3762517293    0.8805298837
     O    10.3367597139    2.4923128073    1.1482204257
     H    -1.2840423697   -2.3942144441    0.4036722525
     H    -0.9306932980   -2.0340808240   -2.6194973945
     H    -2.0540068751   -3.1599217837   -1.8279437866
     H    -0.3054334678   -3.3867682384   -1.6529789886
     H     1.6879733400   -2.5142837175   -0.2356451206
     H     3.5475242120    2.4753707749    0.3709168682
     H     0.6759367178    2.4395724095    0.0699598606
     H    -3.9943011337   -1.7325429207   -0.8052876433
     H    -5.3767004552    0.3306151907   -0.8012544573
     H    -4.3234839736    2.5481405956   -0.4966551407
     H    -1.8672575821    2.7448858451   -0.1951099257
     H     6.2757301153   -1.3219981083    0.2057551763
     H     8.7243131849   -0.9751943827    0.4902161971
     H     8.0563215541    3.2285580151    1.0629938253
     H     5.6327038973    2.8985170333    0.7945504037
