62
-2.4371920626276087e+03 frame 79   xyz file generated by TeraChem
     C    -0.1679232807   -0.6778085910   -1.0558416469
     C     0.0200612428   -0.4155595323   -2.5529685601
     C     0.9941515133   -0.2179590632   -0.2046578933
     C     2.3308905483   -0.5605393040   -0.2979091323
     C     3.2589811964   -0.0187965209    0.6133351308
     C     2.8128971677    0.9030756122    1.5837286738
     C     1.4770213462    1.2652890800    1.6667688881
     C     0.5635288705    0.6950486778    0.7761554611
     C    -0.8745434045    0.8840684611    0.6299857679
     C    -1.3205984383    0.0866297536   -0.4438577433
     C    -2.6512557761    0.0819989143   -0.8149000806
     C    -3.5700153166    0.8823590652   -0.1055369468
     C    -3.1137497836    1.6461288457    0.9886756676
     C    -1.7752988569    1.6641796528    1.3557162834
     C    -4.9939621942    0.9269003246   -0.4007516041
     C    -5.6530270170    0.6054204299   -1.5472299403
     C    -5.0763111917    0.2679012170   -2.8533526380
     S    -3.9962352026    1.3381405706   -3.7008091640
     C    -3.8683479696    0.2650419266   -5.0440016403
     C    -4.6338148448   -0.8501731606   -4.8644888774
     C    -5.3328051974   -0.8457640489   -3.6144952049
     O    -6.1594477502   -1.8451837943   -3.2340072690
     C    -5.9761897693   -3.0316130588   -4.0182369213
     C    -5.8798373610   -2.6917549548   -5.4877542563
     O    -4.7321961522   -1.8763586532   -5.7459600316
     C    -7.0843762979    0.6546963212   -1.5103967210
     N    -8.2480695987    0.6824658062   -1.5027945847
     C     4.6563040478   -0.3899217017    0.4458541025
     C     5.6836351637   -0.3442889630    1.3375294129
     C     5.6291553868   -0.0735967792    2.7770370538
     S     4.5922485658   -0.9620821587    3.8577368015
     C     5.2315425239   -0.1652510204    5.2461179252
     C     6.2068302639    0.7253206789    4.9041405718
     C     6.4454614560    0.7677714490    3.4931760391
     O     7.3713912720    1.5769450779    2.9319034742
     C     8.3022384795    2.0871845513    3.8966964592
     C     7.5749805761    2.5744996382    5.1290883336
     O     6.9025823446    1.4918508837    5.7800512043
     C     6.9847071739   -0.6745650112    0.8338450304
     N     8.0465212290   -0.9380738377    0.4369047854
     H    -0.3246132722   -1.7571458021   -0.9106385079
     H     0.1849781460    0.6506536592   -2.7404913128
     H    -0.8652760906   -0.7319719536   -3.1144652178
     H     0.8813767630   -0.9721459782   -2.9366261041
     H     2.6766224097   -1.2524623512   -1.0631274809
     H     3.5319539636    1.3567185560    2.2575313371
     H     1.1539022894    1.9898295187    2.4095958647
     H    -2.9920666697   -0.5482398433   -1.6307215705
     H    -3.8313297237    2.2413150379    1.5481021963
     H    -1.4448447887    2.2703305959    2.1949844844
     H    -5.6160268623    1.2725826930    0.4234764051
     H    -3.2506606212    0.5154660956   -5.8961945190
     H    -6.8448271132   -3.6630246967   -3.8233480420
     H    -5.0675652972   -3.5463040213   -3.6830419691
     H    -6.7842041636   -2.1645765418   -5.8171380142
     H    -5.7530916488   -3.5979247457   -6.0830233025
     H     4.9081535805   -0.7581928224   -0.5475315298
     H     4.8532844091   -0.3873100084    6.2350851610
     H     8.8292410804    2.9078808598    3.4070352800
     H     9.0168168427    1.2984626284    4.1607350235
     H     6.8458839300    3.3485547376    4.8585839530
     H     8.2810404759    2.9791918251    5.8564550816
