50
-1.9819786594752945e+03 frame 88   xyz file generated by TeraChem
     C    -0.3132593827   -0.9386113211   -1.0029487863
     C    -0.3946574232   -0.8479988969   -2.5299181984
     C     1.0202496796   -0.5048232050   -0.4358599694
     C     2.2801904911   -0.9886866221   -0.7298693161
     C     3.4030706765   -0.4379814304   -0.0791218038
     C     3.2095962264    0.5814195740    0.8763884353
     C     1.9469144781    1.0810033921    1.1637951237
     C     0.8478484128    0.5355805101    0.5003046232
     C    -0.5744086220    0.8394826825    0.5947902980
     C    -1.2710081247   -0.0138851470   -0.2850487649
     C    -2.6441795911    0.0676158777   -0.4075405669
     C    -3.3539509179    1.0113656702    0.3622028916
     C    -2.6458524645    1.8327395354    1.2639780741
     C    -1.2639729760    1.7647910278    1.3787872815
     C    -4.8030137631    1.1511616012    0.3347536247
     C    -5.7075533330    0.7767883213   -0.6113428154
     C    -5.4345799064    0.2716682649   -1.9649884773
     C    -4.6139701625    0.8233459326   -2.9177063295
     C    -4.5984025006    0.0883942358   -4.1331218131
     C    -5.4147764790   -1.0084182778   -4.0961314928
     S    -6.2089664888   -1.1583975846   -2.5787212035
     C    -7.0904968041    0.9547200519   -0.2832549527
     N    -8.2207212728    1.0805307526   -0.0348324757
     C     4.7678683764   -0.9035295480   -0.2768735153
     C     5.3203234830   -1.6250556209   -1.2904651676
     C     4.7016028176   -1.9922598051   -2.5729224250
     C     4.0920723238   -1.1607210500   -3.4795948069
     C     3.6243329033   -1.8431428357   -4.6346001816
     C     3.8915290239   -3.1841470544   -4.5983006991
     S     4.7137605205   -3.6297720810   -3.1556490556
     C     6.6860076735   -2.0233404834   -1.1237571690
     N     7.7917887423   -2.3670094129   -1.0043803009
     H    -0.5177649316   -1.9785266435   -0.7076673950
     H    -0.1938605671    0.1741485672   -2.8677796054
     H    -1.3905462260   -1.1384874196   -2.8802906413
     H     0.3376282412   -1.5162175003   -2.9949845545
     H     2.4047061931   -1.7958864583   -1.4438889990
     H     4.0763593052    0.9862773520    1.3932935474
     H     1.8244156441    1.8739190574    1.8967952477
     H    -3.1769451512   -0.5963299650   -1.0796716175
     H    -3.2014057566    2.5407625650    1.8741934372
     H    -0.7370281841    2.4156719946    2.0712347310
     H    -5.2218105377    1.6321132758    1.2174608437
     H    -4.0448567214    1.7308461141   -2.7454524174
     H    -4.0144831583    0.3692847933   -5.0031116130
     H    -5.5993696285   -1.7382738713   -4.8744711366
     H     5.4509556941   -0.6287264841    0.5254267487
     H     3.9880358873   -0.0933221029   -3.3157114448
     H     3.1198029269   -1.3571806071   -5.4628986803
     H     3.6548262392   -3.9388082601   -5.3379850875
