85
-2.3880946007570392e+03 frame 116   xyz file generated by TeraChem
     C    -1.1908769842    2.4207459401   -3.2904599359
     C    -1.2536830700    1.0642093367   -2.9737952771
     C    -1.9931297674    0.6273594311   -1.8793507712
     C    -2.6987800561    1.5477478673   -1.0945397792
     C    -2.6402901465    2.9090487705   -1.4168607322
     C    -1.8838433764    3.3388899559   -2.5027239793
     N    -3.4577579566    1.1110333830    0.0190364163
     C    -3.3743134253    1.8334182411    1.2344539253
     C    -4.5311080392    2.1276029663    1.9667766694
     C    -4.4413227796    2.8396307018    3.1585749691
     C    -3.2052124157    3.2831237818    3.6272264905
     C    -2.0540819210    2.9984433252    2.8937588333
     C    -2.1324951157    2.2714451630    1.7102280928
     C    -4.2688300160   -0.0296005676   -0.0769042903
     C    -4.4499916855   -0.8795971752    1.0294872136
     C    -5.2413388564   -2.0099521163    0.9332019852
     C    -5.8840192156   -2.3583603007   -0.2701311832
     C    -5.6951473444   -1.4997070083   -1.3672588079
     C    -4.9136266509   -0.3586582580   -1.2790494292
     C    -6.7074480714   -3.5453716319   -0.4364562415
     C    -6.9846478721   -4.4757420422    0.5048979805
     C    -7.7905765262   -5.6661546489    0.3142835581
     C    -8.4493236963   -6.0215044671   -0.8546826580
     C    -9.2079159825   -7.2010075612   -0.9948277027
     C    -9.3739906896   -8.1318016435    0.0213751036
     C    -8.7174256732   -7.8035010044    1.2539082599
     C    -7.9422555857   -6.5931680093    1.3984631567
     N    -7.4037501457   -6.4565387966    2.6134684077
     S    -7.8537594598   -7.7598766202    3.4767690167
     N    -8.7410973648   -8.5473801848    2.3635241371
     C   -10.1281582440   -9.3663156991   -0.0743701542
     C   -10.7696257591   -9.8226089904   -1.1741509428
     C   -11.5168580080  -11.0642734670   -1.2923916070
     C   -11.6945438955  -11.9780186024   -0.2358991093
     C   -12.4064579714  -13.1513140070   -0.4080284961
     C   -12.9703511353  -13.4769131757   -1.6550808129
     C   -12.8046560504  -12.5734199699   -2.7154332190
     C   -12.0983910785  -11.3955221533   -2.5288083938
     N   -13.6769584372  -14.6771222245   -1.8281134256
     C   -14.7685997030  -14.7484935057   -2.7266838913
     C   -14.9028763379  -15.8446447059   -3.5877426897
     C   -15.9849632039  -15.9219547764   -4.4587958361
     C   -16.9365447907  -14.9037946132   -4.4976067665
     C   -16.7999083854  -13.8083258887   -3.6456705993
     C   -15.7307316520  -13.7310734449   -2.7591109025
     C   -13.2781668366  -15.8458631400   -1.1332732785
     C   -14.2368095512  -16.6675177255   -0.5281577494
     C   -13.8441814606  -17.8205047189    0.1443656503
     C   -12.4953628015  -18.1616087859    0.2370153758
     C   -11.5397549426  -17.3409903654   -0.3610897133
     C   -11.9248613719  -16.1954276320   -1.0501335312
     H    -0.6067418087    2.7588306627   -4.1418150530
     H    -0.7113365164    0.3379414672   -3.5736868288
     H    -2.0264748951   -0.4286248624   -1.6269785186
     H    -3.1900209995    3.6257231670   -0.8134227676
     H    -1.8485086341    4.3988650551   -2.7408301933
     H    -5.4974586276    1.7981676919    1.5956553048
     H    -5.3478841456    3.0615297924    3.7157244574
     H    -3.1397291598    3.8459972593    4.5541455163
     H    -1.0831462447    3.3323068509    3.2505881017
     H    -1.2324306006    2.0396098464    1.1479778869
     H    -3.9540009739   -0.6512189782    1.9679453887
     H    -5.3434577807   -2.6438508237    1.8098081165
     H    -6.1852364363   -1.7320582756   -2.3103861162
     H    -4.8003395190    0.2860030825   -2.1452532187
     H    -7.1181277932   -3.6706697382   -1.4381342707
     H    -6.5740916491   -4.3623435878    1.5057300994
     H    -8.3868294950   -5.3665178207   -1.7191957295
     H    -9.6793652575   -7.3768546510   -1.9576559039
     H   -10.1493727858   -9.9562130689    0.8393024425
     H   -10.7373029226   -9.2282170919   -2.0872177943
     H   -11.2806161614  -11.7642098015    0.7457203045
     H   -12.5353773905  -13.8287365518    0.4306813134
     H   -13.2246783092  -12.8025806102   -3.6899717907
     H   -11.9760021408  -10.7154629660   -3.3691739776
     H   -14.1554807477  -16.6325895914   -3.5698363052
     H   -16.0751494144  -16.7789839392   -5.1212497252
     H   -17.7767688601  -14.9639124227   -5.1836972712
     H   -17.5390056774  -13.0114245765   -3.6587458952
     H   -15.6354898994  -12.8836819380   -2.0863344169
     H   -15.2872799287  -16.3967278471   -0.5865547449
     H   -14.5990624409  -18.4485673354    0.6104158414
     H   -12.1918579676  -19.0588931844    0.7690741593
     H   -10.4855677095  -17.5998537860   -0.3048294336
     H   -11.1794067699  -15.5657994238   -1.5275311559
