48
-1.3229637264126973e+03 frame 33   xyz file generated by TeraChem
    Br    -1.3274061058    0.4374586405   -1.9917374578
     C     0.5245013286    0.3283486574   -1.3711255135
     C     1.1803664173   -0.8941120333   -1.4333039332
     C     2.4950775150   -0.9650365031   -0.9845833230
     C     3.1404362480    0.1668080962   -0.4742920746
     C     2.4517398693    1.3839111459   -0.4336037459
     C     1.1376096203    1.4745632957   -0.8830925323
     C     4.5509481253    0.0866896082   -0.0658047558
     N     5.3954891907   -0.5612820524   -0.8535904913
     N     6.6312407594   -0.4249837358   -0.3306598640
     C     6.6121479230    0.3433911584    0.7991561712
     C     5.2527884422    0.6688573066    1.0340529791
     C     5.0324575352    1.4083932399    2.2222463182
     C     6.1700802188    1.8605337950    2.9200203967
     C     7.4635579171    1.5016236041    2.5220814562
     N     7.7079685391    0.7255434435    1.4807672943
     C     5.7206729115    2.6292717285    4.0690514738
     O     6.3381531641    3.1692201975    4.9819383945
     N     4.3418412560    2.6572796174    3.9243947084
     N     3.9259004665    1.8519085917    2.8634666854
     C     2.5779218338    1.4227831341    2.8334888820
     C     1.5645831093    2.3726920378    2.9766503767
     C     0.2386851575    1.9536090010    3.0057454440
     C    -0.0746429839    0.6009721369    2.8768870869
     C     0.9456598448   -0.3379766485    2.7328961894
     C     2.2775653088    0.0644092320    2.7257753668
     C     7.7419301861   -0.9822558992   -1.0129781496
     C     7.6939799155   -1.0843827242   -2.4046481625
     C     8.7679716976   -1.6461260600   -3.0866728833
     C     9.8898158202   -2.0940732718   -2.3907444654
     C     9.9268603400   -1.9866205504   -1.0020186422
     C     8.8534442577   -1.4401946952   -0.3038899655
     H     0.6807848171   -1.7774167371   -1.8170489280
     H     3.0238549250   -1.9127380380   -1.0230307443
     H     2.9464778001    2.2777124556   -0.0638265497
     H     0.6119425903    2.4231099519   -0.8495833306
     H     8.3210619940    1.8567663857    3.0906668851
     H     3.7101548379    2.7272550608    4.7136324368
     H     1.8160579840    3.4265258658    3.0566719793
     H    -0.5519000051    2.6899398483    3.1186254450
     H    -1.1120927569    0.2793866134    2.8927659681
     H     0.7080178328   -1.3941712871    2.6434337436
     H     3.0771884137   -0.6660636214    2.6471133600
     H     6.8205698656   -0.7246888653   -2.9378946146
     H     8.7286833860   -1.7245894512   -4.1696739288
     H    10.7294486210   -2.5263319937   -2.9278438002
     H    10.7927601864   -2.3414254976   -0.4498605361
     H     8.8759723000   -1.3671333961    0.7766792549
