36
-1.3968319391558562e+03 frame 22   xyz file generated by TeraChem
    Br    -1.3572536534    0.4716763417   -0.2949787768
     C     0.5704511749    0.1994445316   -0.1143626102
     C     1.2627994485   -0.4020191230   -1.1561336081
     C     2.6355082109   -0.5822661675   -1.0269075245
     C     3.3141327003   -0.1699667164    0.1267938706
     C     2.5814133394    0.4336318284    1.1571597329
     C     1.2081622394    0.6217774714    1.0450032845
     C     4.7679734501   -0.3778154525    0.2278451204
     C     5.5440032776   -0.1572879817    1.3473177144
     S     7.1779742864   -0.5352618922    1.0256260542
     C     6.7244045793   -0.9697629160   -0.5987200420
     N     5.4529322878   -0.8388045683   -0.8630911181
     N     7.7565877380   -1.4026683273   -1.4166101037
     N     7.3904902014   -1.6839519888   -2.5953905455
     C     8.3887900281   -2.1315844255   -3.4472818604
     C     9.7203804823   -2.3126443892   -3.0853490907
     C    10.6622645119   -2.7704544683   -4.0033392267
     C    10.2962834041   -3.0594310530   -5.3126445083
     C     8.9384264486   -2.8886379442   -5.7337482289
     C     7.9831707344   -2.4233675247   -4.7897489146
     C     6.6525429568   -2.2701777615   -5.2434458590
     C     6.3485824626   -2.5702300094   -6.5476634373
     C     7.3781805479   -3.0239816284   -7.4008862827
     N     8.6282078050   -3.1818037664   -7.0219039266
     O    11.1636349019   -3.5009358845   -6.2294510767
     H     0.7477916743   -0.7287537561   -2.0532978579
     H     3.1922627129   -1.0503808289   -1.8321316613
     H     3.0775879057    0.7748312510    2.0610673026
     H     0.6521494728    1.0931301055    1.8485359002
     H     5.2401833185    0.1905596138    2.3255996703
     H    10.0213522913   -2.0919091963   -2.0664260564
     H    11.6974161931   -2.9076937033   -3.6995580388
     H     5.8956382301   -1.9178497173   -4.5509290531
     H     5.3374452474   -2.4647518091   -6.9285368788
     H     7.1515961288   -3.2652618235   -8.4386245861
     H    12.0460208305   -3.5848658677   -5.8310973451
