46
-1.6068217577718406e+03 frame 56   xyz file generated by TeraChem
    Br     0.3053474325   -6.2229530460    1.9576642962
     C     1.9949925681   -5.2946368797    1.6313011833
     C     2.0934603931   -3.9433009698    1.9514085411
     C     3.2872552903   -3.2799963911    1.7048293814
     C     4.3769434666   -3.9656585309    1.1423822474
     C     4.2444567750   -5.3257255690    0.8330133179
     C     3.0537894020   -6.0003630533    1.0754823420
     N     5.6200115852   -3.3935974918    0.8413115132
     N     5.7399569864   -2.1675761789    1.1692963716
     C     6.9136009989   -1.6047462251    0.8499727679
     S     8.1695749588   -2.4864424722   -0.0395652793
     C     9.0889979958   -0.9937572277   -0.0527647516
     N     8.5292975714    0.0409453990    0.5474406720
     C     7.3148949090   -0.2821938676    1.0667028690
     C     6.5591701170    0.7580014697    1.7659657143
     C     6.8799706048    2.1043096850    1.5350671901
     C     6.2036828542    3.1376121456    2.1657899661
     C     5.1768664879    2.8418361245    3.0744708011
     C     4.8593807851    1.4975158806    3.3270765319
     C     5.5361695909    0.4752390979    2.6861421894
     N     4.4487838267    3.8094597385    3.7690939650
     C     4.5084514643    5.1721831067    3.6535148210
     O     5.2234441301    5.7537557273    2.8427751273
     C     3.6151223542    5.9318635610    4.5818131641
     C     3.2056143939    5.4467044509    5.8292364222
     C     2.3931936317    6.2259131398    6.6486154539
     C     1.9803938570    7.4890974764    6.2286215659
     C     2.3933028601    7.9803849605    4.9901272206
     C     3.2136632069    7.2092184475    4.1755281952
     N    10.2894116972   -0.9261427271   -0.6258506950
     H     1.2495717644   -3.4145545240    2.3823886692
     H     3.3814884379   -2.2246752105    1.9396453934
     H     5.0918318677   -5.8475926245    0.3974620074
     H     2.9544576584   -7.0530130089    0.8339008196
     H     7.6745628348    2.3414674910    0.8349143879
     H     6.4586297333    4.1676584451    1.9590862936
     H     4.0772361353    1.2573835838    4.0434727594
     H     5.2769689273   -0.5542556426    2.9050753552
     H     3.7369945302    3.4417557336    4.3873907111
     H     3.5428107031    4.4774051104    6.1881191619
     H     2.0883351752    5.8472120436    7.6201812281
     H     1.3430681673    8.0930661121    6.8688880277
     H     2.0764679113    8.9662195264    4.6609542148
     H     3.5518095389    7.5820121556    3.2135870546
     H    10.7045578605   -1.7099779762   -1.1070143926
     H    10.7835909569   -0.0443403926   -0.6249694235
