10
-7.3559936605585051e+02 frame 24   xyz file generated by TeraChem
     B     1.4892183473   -0.2203367602   -0.1308004917
     P     2.9423832914    0.7641132487    0.4923599902
     P     3.9200592424   -0.2523204734    2.1432630460
     B     5.2595645862   -1.3440214554    1.4682824168
     H     0.5394611489    0.3689762478   -0.5575947156
     H     1.5801439979   -1.4075895710   -0.2331175774
     H     2.3911688299    1.9114245333    1.1022629019
     H     2.9651362518   -1.0964806569    2.7498201835
     H     5.9085459469   -0.9760008706    0.5343692841
     H     5.5582572293   -2.3263345629    2.0818946944
