36
-1.3263302581909950e+03 frame 45   xyz file generated by TeraChem
     C     2.6957907111    1.3378564916   -0.0127345087
     N     1.7149295968    0.2735795033    0.0822231939
     C     1.9456489050   -1.0600989390    0.0985951756
     C     3.2807688738   -1.6570541066    0.1582045293
     C     4.2263766446   -1.2074517207    1.0927138570
     C     5.4801790367   -1.8048232581    1.1644976643
     C     5.8066199569   -2.8524653971    0.3044988262
     C     4.8720594251   -3.3050145584   -0.6258908718
     C     3.6146140158   -2.7158799759   -0.6993527160
     C     0.7017458370   -1.7354964109    0.0804014191
     C    -0.3339872847   -0.7267237768    0.0543333016
     C     0.3417796412    0.5107346850    0.0632018458
     C    -0.3263313417    1.7316752768    0.0512909800
     C    -1.7168334782    1.6933119838    0.0313509020
     C    -2.4097013578    0.4737637475    0.0259837463
     C    -1.7329895638   -0.7412382743    0.0380520653
     N     0.6595490063   -3.0822701403    0.1407244375
     N    -0.5109690688   -3.6023476046    0.0897604691
     C    -0.4911301820   -4.9809476612    0.1954442061
     N     0.5126526995   -5.7821766452    0.4643999309
     N     0.1441758294   -7.0867474664    0.4982477775
     C    -1.1242221868   -7.2666822887    0.2630495363
     S    -2.0048442345   -5.8163021635   -0.0287043337
     H     3.6545017636    0.9228920372   -0.3215713084
     H     2.8111380846    1.8449327902    0.9499502916
     H     2.3616548862    2.0594162160   -0.7620810585
     H     3.9670963734   -0.4080631276    1.7812698079
     H     6.2011719646   -1.4546435281    1.8978925232
     H     6.7877307348   -3.3162518257    0.3602580964
     H     5.1237364582   -4.1190791796   -1.3000127965
     H     2.8890666720   -3.0628071202   -1.4276199559
     H     0.2079742938    2.6767678687    0.0649109989
     H    -2.2731075791    2.6264205790    0.0239480685
     H    -3.4961541889    0.4792074890    0.0123095571
     H    -2.2703594554   -1.6820013509    0.0331196060
     H    -1.5935713904   -8.2434083501    0.2510153293
