229
-5.6879140615920587e+03 frame 217   xyz file generated by TeraChem
     C    -4.7391553427  -18.9485033944   11.0576439435
     C    -5.5602947607  -17.9075160307   10.6258318801
     C    -5.0115096695  -16.7632696727   10.0558334593
     C    -3.6247477417  -16.6524390305    9.8920774114
     C    -2.8017218084  -17.7025067877   10.3188612314
     C    -3.3580569312  -18.8352582028   10.9044611868
     N    -3.0594504970  -15.4933310675    9.3089744263
     C    -1.8864634999  -14.9343614162    9.8694251962
     C    -0.8481504242  -14.4843630016    9.0436265014
     C     0.3013692952  -13.9335123645    9.6009239649
     C     0.4432825566  -13.8388184515   10.9847164809
     C    -0.5856703441  -14.2942313944   11.8080928232
     C    -1.7464503870  -14.8298953237   11.2592344424
     C    -3.6530481953  -14.9061183091    8.1764432183
     C    -3.6589945998  -13.5106112792    8.0113069734
     C    -4.2394893135  -12.9311724593    6.8959284690
     C    -4.8510751608  -13.7099756067    5.8964879447
     C    -4.8528059808  -15.1024904599    6.0833498417
     C    -4.2600292180  -15.6943739113    7.1890771440
     C    -5.4782750761  -13.1493546033    4.7050242965
     C    -5.4178758109  -11.8645072836    4.2969204670
     C    -6.0615436319  -11.2931057692    3.1191878947
     C    -7.0029922479  -11.9808474146    2.3310900903
     C    -7.5925613574  -11.3859020262    1.2278819878
     C    -7.2561136080  -10.0752915330    0.8562585436
     C    -6.3195561161   -9.3783830702    1.6287475230
     C    -5.7463028172   -9.9767377881    2.7412523116
     N    -7.8623224914   -9.4643265531   -0.2648818027
     C    -8.2802607126   -8.1184454348   -0.1761097941
     C    -8.0802055088   -7.2302739339   -1.2443764955
     C    -8.4837948361   -5.9084030050   -1.1497933326
     C    -9.0943016105   -5.4096973724    0.0157513003
     C    -9.2737087096   -6.3086081372    1.0810932190
     C    -8.8882659087   -7.6376532182    0.9898500834
     C    -9.5332481057   -4.0282723048    0.1760190092
     C    -9.5985114284   -3.0847736066   -0.7866887042
     C   -10.0207981144   -1.6998487258   -0.6129573192
     C   -10.2581961664   -1.1080274939    0.6413837729
     C   -10.6568205023    0.2127820636    0.7548506692
     C   -10.8494392218    1.0082811136   -0.3877651900
     C   -10.6142408048    0.4322896259   -1.6440478083
     C   -10.2001930354   -0.8878397857   -1.7454722783
     N   -11.2600402141    2.3480186012   -0.2685997034
     C   -10.7841841435    3.3273954435   -1.1727459025
     C   -11.6569535421    4.2916693345   -1.6922053082
     C   -11.1841276597    5.2668201362   -2.5647550327
     C    -9.8435385235    5.2860589349   -2.9468599646
     C    -8.9756827488    4.3202508423   -2.4385465091
     C    -9.4357601279    3.3524981126   -1.5512367667
     C   -12.1640652357    2.7277328767    0.7522832640
     C   -11.9555736174    3.9077576943    1.4776754860
     C   -12.8495735880    4.2835740557    2.4750941102
     C   -13.9518678428    3.4844751106    2.7763401899
     C   -14.1569819235    2.3062249810    2.0595131315
     C   -13.2779051924    1.9316541352    1.0483416563
     C    -8.0375613739  -10.1897379690   -1.4567545064
     C    -9.1655557643   -9.9753969760   -2.2683469546
     C    -9.3358450106  -10.6839261754   -3.4449857490
     C    -8.3992075019  -11.6481088213   -3.8634747556
     C    -7.2850058254  -11.8621673820   -3.0330213159
     C    -7.0961489248  -11.1470917618   -1.8611056941
     C    -8.5152313633  -12.4279799364   -5.0865308274
     C    -9.4613063084  -12.2901950910   -6.0443271820
     C    -9.5912248967  -13.0574613457   -7.2659000613
     C   -10.6224977618  -12.7680563834   -8.1510097476
     C   -10.8440128535  -13.4520168019   -9.3639650020
     C   -10.0384279220  -14.4909526580   -9.8017449726
     C    -8.9579848722  -14.8336002260   -8.9203797417
     C    -8.7305529889  -14.1346438326   -7.6734156750
     N    -7.6755931307  -14.6054044236   -7.0025959566
     S    -7.0463620987  -15.8175661632   -7.8877827541
     N    -8.0702005218  -15.8030092304   -9.1505766916
     C   -10.2038482796  -15.2325258786  -11.0366864778
     C   -11.0747230823  -14.9418259199  -12.0292785822
     C   -11.2476685635  -15.6844602131  -13.2681912157
     C   -10.5965488293  -16.9017802529  -13.5452022036
     C   -10.7826759269  -17.5633015254  -14.7455264812
     C   -11.6263634915  -17.0312102133  -15.7364469405
     C   -12.2878496834  -15.8235828447  -15.4716263720
     C   -12.1043259882  -15.1754867404  -14.2598959061
     N   -11.7986247168  -17.6997604795  -16.9613052590
     C   -13.0388244118  -17.6583657903  -17.6352592668
     C   -13.0850603141  -17.4896335194  -19.0278122709
     C   -14.2973299182  -17.4580603840  -19.6961996956
     C   -15.5184694464  -17.5800168364  -19.0076947383
     C   -15.4547082663  -17.7392910854  -17.6124745196
     C   -14.2445743248  -17.7872791687  -16.9353948286
     C   -16.8239341193  -17.5473661339  -19.6579433373
     C   -17.0602560820  -17.4537320033  -20.9833484778
     C   -18.3619276906  -17.4154700104  -21.6391910968
     C   -19.5894409442  -17.4196616104  -20.9510511459
     C   -20.7973475846  -17.3776378153  -21.6259935499
     C   -20.8374665262  -17.3417019928  -23.0306878388
     C   -19.6220722961  -17.3409719728  -23.7293659212
     C   -18.4173428176  -17.3686621786  -23.0424082283
     N   -22.0668347042  -17.3032388037  -23.7117730023
     C   -22.1958748939  -16.5755683750  -24.9190222635
     C   -22.8982880491  -17.1207391298  -26.0011567974
     C   -23.0365603433  -16.3978447186  -27.1818996610
     C   -22.4645937809  -15.1326876776  -27.3090757044
     C   -21.7583191049  -14.5921143230  -26.2351217679
     C   -21.6303548276  -15.3002044682  -25.0445889557
     C   -23.1881706886  -18.0007660384  -23.2016165934
     C   -24.4525662137  -17.3984135981  -23.1991237436
     C   -25.5566564592  -18.0905392671  -22.7118018002
     C   -25.4156245060  -19.3815971554  -22.2043718245
     C   -24.1556281636  -19.9789057023  -22.1982061570
     C   -23.0491992087  -19.3009421249  -22.6999585223
     C   -10.7101538709  -18.3744679510  -17.5596273330
     C   -10.8977575679  -19.6272529522  -18.1628474845
     C    -9.8391496710  -20.2870521349  -18.7640062687
     C    -8.5451460812  -19.7333700306  -18.7813501381
     C    -8.3712497583  -18.4862710617  -18.1567859796
     C    -9.4291017215  -17.8105736366  -17.5658799483
     C    -7.3959644968  -20.3779775530  -19.4077356157
     C    -7.4173512846  -21.4990324152  -20.1585252524
     C    -6.2784179029  -22.1496248511  -20.7949341630
     C    -4.9409251305  -21.7535721516  -20.6099895019
     C    -3.8990079521  -22.4059290657  -21.2471228291
     C    -4.1465180191  -23.4843944644  -22.1133317743
     C    -5.4740940475  -23.8910259081  -22.3053098799
     C    -6.5089395044  -23.2400701862  -21.6505929382
     N    -3.0865958183  -24.1423304689  -22.7638202328
     C    -3.1469509976  -25.5390341035  -22.9883051321
     C    -2.7529488866  -26.0759865101  -24.2201230120
     C    -2.7983060284  -27.4505836670  -24.4311416982
     C    -3.2513607994  -28.3069758716  -23.4285127336
     C    -3.6525892267  -27.7724980707  -22.2046541233
     C    -3.5937746373  -26.4011774937  -21.9788182256
     C    -1.9601950837  -23.4136892893  -23.2128128830
     C    -0.6713112973  -23.9417947983  -23.0629739938
     C     0.4347007938  -23.2304822844  -23.5170020883
     C     0.2778232617  -21.9778783605  -24.1091890118
     C    -1.0036040721  -21.4472126051  -24.2513177514
     C    -2.1170471290  -22.1595881430  -23.8176045691
     H    -5.1708230117  -19.8374399118   11.5090773228
     H    -6.6384060134  -17.9770282859   10.7461148337
     H    -5.6554784506  -15.9490126433    9.7362039019
     H    -1.7258349806  -17.6267874751   10.1896300346
     H    -2.7048395718  -19.6408043968   11.2300662235
     H    -0.9454898275  -14.5702787565    7.9651763330
     H     1.0979115879  -13.5901043755    8.9457881564
     H     1.3455699072  -13.4149525731   11.4166355736
     H    -0.4931619024  -14.2204903352   12.8886487839
     H    -2.5508287240  -15.1692140144   11.9055594062
     H    -3.2113494092  -12.8797078700    8.7733780429
     H    -4.2395456050  -11.8473451933    6.8160819388
     H    -5.3149849430  -15.7367800736    5.3298051819
     H    -4.2645285070  -16.7754477843    7.2904733002
     H    -6.0284954114  -13.8710878977    4.1014126880
     H    -4.8252808439  -11.1558107293    4.8752058046
     H    -7.3038360232  -12.9898892613    2.5993555642
     H    -8.3312239301  -11.9330302791    0.6491164144
     H    -6.0435824957   -8.3644286577    1.3541428744
     H    -5.0202408558   -9.4178285315    3.3276803395
     H    -7.5937828779   -7.5831596035   -2.1491483958
     H    -8.2933744042   -5.2458265539   -1.9898380753
     H    -9.7446047253   -5.9563475221    1.9963908396
     H    -9.0570137562   -8.3098886225    1.8259419595
     H    -9.8490919563   -3.7717562487    1.1870239558
     H    -9.3311039262   -3.3521538642   -1.8090668778
     H   -10.1038484305   -1.6816116846    1.5515132897
     H   -10.8141034273    0.6436120334    1.7391754072
     H   -10.7594091474    1.0226550279   -2.5438157376
     H   -10.0275547953   -1.3114198440   -2.7327093689
     H   -12.7053230849    4.2732871203   -1.4085290295
     H   -11.8747353368    6.0085191703   -2.9578588022
     H    -9.4788904199    6.0451656822   -3.6332695351
     H    -7.9260397854    4.3266529522   -2.7210954351
     H    -8.7517129512    2.6123813350   -1.1459984098
     H   -11.0900827294    4.5252213900    1.2553331760
     H   -12.6733705618    5.2015888164    3.0298458697
     H   -14.6438981941    3.7771041042    3.5610442243
     H   -15.0166714936    1.6776531118    2.2771242724
     H   -13.4488767237    1.0208512525    0.4818216212
     H    -9.9149328660   -9.2516267353   -1.9623763437
     H   -10.2270039261  -10.4975354964   -4.0382195765
     H    -6.5401197267  -12.5971959612   -3.3298792816
     H    -6.2133936015  -11.3251403121   -1.2547250783
     H    -7.7475968460  -13.1849748292   -5.2245379266
     H   -10.2278187659  -11.5243408431   -5.9261892399
     H   -11.3074062496  -11.9646526861   -7.8901704080
     H   -11.6928891838  -13.1439940502   -9.9678593930
     H    -9.5360438165  -16.0841562358  -11.1454678098
     H   -11.7118569820  -14.0624099728  -11.9337079440
     H    -9.9468964762  -17.3534135202  -12.8006999476
     H   -10.2774121042  -18.5079277891  -14.9228598290
     H   -12.9407255424  -15.3903002457  -16.2230100955
     H   -12.6218635696  -14.2355601485  -14.0806998257
     H   -12.1593344234  -17.3761017259  -19.5845216504
     H   -14.2905406135  -17.3159213840  -20.7732266525
     H   -16.3798929312  -17.8432717985  -17.0496047784
     H   -14.2295049118  -17.9270145230  -15.8584066548
     H   -17.6693836621  -17.6119998966  -18.9732245388
     H   -16.2129756592  -17.4039438401  -21.6671895608
     H   -19.6047257706  -17.4380278185  -19.8647459592
     H   -21.7266144365  -17.3654920340  -21.0644200032
     H   -19.6247286696  -17.3203475846  -24.8149447066
     H   -17.4877534896  -17.3704611694  -23.6077603743
     H   -23.3336567603  -18.1118602475  -25.9114401955
     H   -23.5847905268  -16.8348476582  -28.0126053109
     H   -22.5688761733  -14.5737820253  -28.2348481823
     H   -21.3138851518  -13.6034472975  -26.3162194950
     H   -21.0924906271  -14.8681233872  -24.2056082450
     H   -24.5632207579  -16.3874783536  -23.5808411087
     H   -26.5314424784  -17.6096249556  -22.7166655794
     H   -26.2787310613  -19.9170601490  -21.8188304934
     H   -24.0320370571  -20.9878056200  -21.8130385001
     H   -22.0722785406  -19.7756696497  -22.7093249234
     H   -11.8833810145  -20.0837007101  -18.1486566470
     H   -10.0206348822  -21.2610201557  -19.2099605508
     H    -7.3840934794  -18.0292873073  -18.1557763425
     H    -9.2675460978  -16.8390170004  -17.1080323271
     H    -6.4478329353  -19.8651136739  -19.2467115930
     H    -8.3732470405  -21.9884305241  -20.3451639709
     H    -4.7034004644  -20.9322975158  -19.9391426620
     H    -2.8764131323  -22.0856215122  -21.0714330469
     H    -5.6930946208  -24.7198470048  -22.9717464034
     H    -7.5312825996  -23.5720435211  -21.8194079134
     H    -2.4121789644  -25.4115662658  -25.0089591363
     H    -2.4888687494  -27.8517989245  -25.3928277083
     H    -3.2915841534  -29.3791746416  -23.5990315171
     H    -4.0007943693  -28.4280081166  -21.4105306840
     H    -3.8930605098  -25.9908643415  -21.0186380216
     H    -0.5420612172  -24.9103500963  -22.5887130311
     H     1.4276841980  -23.6549224631  -23.3928822659
     H     1.1443647503  -21.4217725032  -24.4557537272
     H    -1.1431832121  -20.4756327056  -24.7184204748
     H    -3.1138715060  -21.7478267220  -23.9464649996
