50
-1.1872021852626312e+03 frame 24   xyz file generated by TeraChem
     C    -1.2804968669    1.9914341805    0.3389433069
     C    -1.3259287025    2.8585087762    1.6005704715
     C    -0.0068686594    1.1865928369    0.2016281016
     C     1.2898688707    1.6263863989    0.1964763926
     C     2.3351826549    0.6789128201    0.0553856027
     N     3.6187545886    1.1057230177    0.0084486174
     C     4.5813935825    0.2120748454   -0.1160500262
     C     5.9524338977    0.7610366525   -0.2599396411
     C     6.3502032806    1.8278108791    0.5555344422
     C     7.6093211713    2.4006626901    0.4064319605
     C     8.4804367825    1.9277105057   -0.5738073501
     C     8.0857055739    0.8774612149   -1.4018643082
     C     6.8327038890    0.2925629462   -1.2435514422
     C     4.2797703682   -1.1980901479   -0.1417907557
     N     3.0314865716   -1.6225244172   -0.1487494262
     C     2.0317448165   -0.7092334942   -0.0699339704
     C     0.6864784848   -1.1435872591   -0.0677006626
     C    -0.3101174184   -0.2041861056    0.0708508919
     C    -1.7634897787   -0.3561360750    0.1287045515
     C    -2.3424970116    0.9149993595    0.2893650916
     C    -3.7223876295    1.0470958388    0.3820399295
     C    -4.5173510682   -0.0987180584    0.3126482970
     C    -3.9393524556   -1.3617646157    0.1504715914
     C    -2.5570462758   -1.5013464134    0.0564092724
     C     5.3224863215   -2.2538836816   -0.1165203967
     C     6.4008756050   -2.1904488324    0.7747040434
     C     7.3288620116   -3.2259841017    0.8307514386
     C     7.1993447695   -4.3304044333   -0.0102198217
     C     6.1270845156   -4.4021556555   -0.8984103438
     C     5.1894744804   -3.3748786912   -0.9447404414
     H    -1.3854406675    2.6532297059   -0.5340277487
     H    -1.2209160668    2.2416310013    2.4993135700
     H    -2.2758199948    3.3997697270    1.6611987706
     H    -0.5158618429    3.5948571397    1.5890157649
     H     1.5502905650    2.6775265590    0.2911512195
     H     5.6639362730    2.1997083019    1.3111406151
     H     7.9094528084    3.2193840583    1.0551664298
     H     9.4624540629    2.3774829690   -0.6943037148
     H     8.7548810279    0.5133347733   -2.1769009507
     H     6.5304100130   -0.5215817864   -1.8961978317
     H     0.4781755159   -2.2061443447   -0.1606790519
     H    -4.1811634845    2.0252942064    0.5062063381
     H    -5.5981231657   -0.0085317532    0.3847705995
     H    -4.5751506289   -2.2415869693    0.0980902974
     H    -2.1077482985   -2.4835364525   -0.0684933588
     H     6.5046707600   -1.3358306463    1.4371408800
     H     8.1543612332   -3.1702108547    1.5353381043
     H     7.9296574506   -5.1342974951    0.0293242943
     H     6.0193783877   -5.2607842172   -1.5559318427
     H     4.3472179788   -3.4305242338   -1.6286681088
