70
-1.7237556050331232e+03 frame 45   xyz file generated by TeraChem
     C     1.3700189664   -0.5816711706    0.3030989841
     C     0.5001778561   -0.1391785114   -0.8775785947
     C     1.5116148008   -2.0834832644    0.4203081560
     C     0.5322885883   -3.0282780143    0.5465004624
     C     0.9012099380   -4.3982359480    0.6368678919
     N    -0.0575995613   -5.3331472265    0.7658935172
     C     0.3126094159   -6.6027993103    0.8503852121
     C    -0.7145799261   -7.6289924600    0.9966609568
     C    -2.0690354393   -7.2602451940    1.0494106873
     C    -3.0591813986   -8.2147260232    1.1891251937
     C    -2.7054301289   -9.5657751790    1.2778128753
     C    -1.3741647806   -9.9431800087    1.2272717398
     C    -0.3469058393   -8.9917630995    1.0868521202
     C     1.0691690728   -9.3759714183    1.0341557342
     C     2.0683015288   -8.3850857349    0.8932890631
     C     1.6944279118   -6.9765837789    0.8015414377
     N     2.6484489928   -6.0669732616    0.6749844578
     C     2.2858114893   -4.7712752121    0.5918886640
     C     3.2827370396   -3.7730653197    0.4597281695
     C     2.8944581969   -2.4576243569    0.3767604664
     C     3.6851529993   -1.2363789506    0.2429416105
     C     2.8126378954   -0.1357985927    0.2001152759
     C     3.3136244559    1.1526714700    0.0809913148
     C     4.6997747616    1.3533526964    0.0104032374
     C     5.5606136360    0.2439297591    0.0542203737
     C     5.0653828520   -1.0504636744    0.1682803910
     C     5.2608835664    2.7287636054   -0.0983160891
     C     5.9220253811    3.3049746854    1.0085100328
     C     6.0475655824    2.6320303388    2.2638604154
     C     6.6920061248    3.2158940633    3.3202106472
     C     7.2560250019    4.5158597106    3.1993356758
     C     7.1480148734    5.2006876922    2.0214527750
     C     6.4787389780    4.6289145110    0.8973777642
     C     6.3490172283    5.3313672280   -0.3015851655
     C     5.6902464754    4.7780284989   -1.4004870742
     C     5.1361606049    3.4512180437   -1.3046698705
     C     4.4958224438    2.9099434505   -2.4627330702
     C     4.3944088614    3.6332759083   -3.6197923727
     C     4.9296450320    4.9483218686   -3.7043871850
     C     5.5611655637    5.5001116405   -2.6252926135
     C     3.4227383798   -8.7535265917    0.8425356625
     C     3.8005435858  -10.0807058405    0.9280408969
     C     2.8192969862  -11.0681281786    1.0689235440
     C     1.4803922932  -10.7188505464    1.1207966823
     H     0.9254478507   -0.1820834941    1.2264735891
     H     0.9020511277   -0.5248221937   -1.8203742233
     H     0.4618853892    0.9534187571   -0.9376195827
     H    -0.5238753101   -0.5084580974   -0.7604265952
     H    -0.5241100994   -2.7744731036    0.5822861360
     H    -2.3173208317   -6.2065154742    0.9786373135
     H    -4.1033883203   -7.9174781025    1.2294741367
     H    -3.4743781130  -10.3256583021    1.3874518677
     H    -1.1350260928  -10.9984691804    1.2988837412
     H     4.3256813618   -4.0767730988    0.4290079420
     H     2.6443141778    2.0097040059    0.0525082446
     H     6.6336215688    0.4077763341   -0.0026045891
     H     5.7466173601   -1.8971463411    0.1992288409
     H     5.6158567639    1.6422546676    2.3722148621
     H     6.7723329765    2.6848413683    4.2650604158
     H     7.7663890358    4.9612816599    4.0490778461
     H     7.5677053526    6.1986460664    1.9167512179
     H     6.7705205020    6.3316975868   -0.3806925651
     H     4.0873874140    1.9053487241   -2.4149900701
     H     3.9036137114    3.1997417547   -4.4871987917
     H     4.8377801643    5.5068670378   -4.6319972902
     H     5.9823808315    6.5015628463   -2.6774406381
     H     4.1656379067   -7.9701765560    0.7345333041
     H     4.8515382603  -10.3528339565    0.8869038591
     H     3.1030350092  -12.1147165214    1.1386600287
     H     0.7456112049  -11.5085267912    1.2317072178
