45
-1.4850742077155728e+03 frame 107   xyz file generated by TeraChem
     C     0.2616274847    1.5793351989   -1.4367480650
     C     1.4834930556    1.6208330575   -0.5453870654
     O     2.5841273938    2.2876361635   -1.1932759822
     C     3.3412427239    1.5474407753   -2.0357186453
     O     3.1488594064    0.3585290516   -2.2097610414
     C     4.3784611072    2.3449703655   -2.6930467361
     C     4.4130590530    3.7571228386   -2.6938380671
     N     3.6192206085    4.6026303774   -2.0413190303
     S     5.6644904071    4.3957385267   -3.7238226793
     C     6.1658983033    2.7523142367   -4.1496853105
     C     5.3952675102    1.7845136992   -3.5277256974
     C     5.6964926914    0.3476615009   -3.6999374423
     C     6.0088993549   -0.4494580115   -2.5910169103
     C     6.3557720724   -1.7851334415   -2.7591734415
     C     6.3835730835   -2.3485944830   -4.0354406048
     C     6.0668413778   -1.5649760260   -5.1426945907
     C     5.7308657470   -0.2231982798   -4.9774779027
     N     7.2388058073    2.5315365388   -4.9414296359
     N     7.7976864545    3.5829438104   -5.3842959847
     C     8.9137386489    3.3656442837   -6.2057420149
     C     9.3954278472    2.1037016097   -6.5947588725
     C    10.5088940524    2.0123463295   -7.4132572173
     C    11.1800907483    3.1583913034   -7.8718102253
     C    10.6913602347    4.4074087974   -7.4789166874
     C     9.5726511206    4.5133487786   -6.6597280384
     C    12.3827593058    3.0331206551   -8.7628576915
     H    -0.5740002852    1.1284900844   -0.8907493606
     H     0.4521372727    0.9794648906   -2.3312164566
     H    -0.0320065074    2.5888572089   -1.7418097487
     H     1.8063106728    0.6182336941   -0.2560999690
     H     1.3031218576    2.2132047792    0.3540487298
     H     2.8803090476    4.2304516281   -1.4592669584
     H     3.7017760413    5.6022118131   -2.1571505146
     H     5.9901994487   -0.0140307097   -1.5958524236
     H     6.6057970966   -2.3892025709   -1.8908489276
     H     6.6510429108   -3.3940679468   -4.1644391543
     H     6.0823671844   -1.9965432890   -6.1400927823
     H     5.4851443620    0.3874045265   -5.8415824507
     H     8.8856231723    1.2099656232   -6.2486368318
     H    10.8737817945    1.0306396815   -7.7089527682
     H    11.1937549034    5.3097003725   -7.8200394050
     H     9.1930876785    5.4854951530   -6.3562199815
     H    13.1523704823    2.4020171298   -8.3029101658
     H    12.8255114227    4.0105019590   -8.9756053200
     H    12.1181071924    2.5660856906   -9.7195762321
