38
-1.4596513706601502e+03 frame 49   xyz file generated by TeraChem
     C     2.9020094135    3.0441573880    0.8279098375
     C     2.6509758997    1.5522155100    0.8222612086
     O     3.2750771494    0.9163787759    1.9569804992
     C     4.5615671716    0.5824739339    1.8293390984
     O     5.2255518637    0.7775565844    0.8339540376
     C     5.0560272360   -0.1034863672    3.0861478268
     C     6.5470651748   -0.1396149077    3.1754235747
     C     7.3181302200   -1.2724315780    3.0948642414
     S     8.9753745586   -0.8733292188    3.2528394498
     C     8.5200033347    0.8000453339    3.4153924702
     N     7.2336044435    1.0269949418    3.3584009342
     N     9.5676976945    1.6923937258    3.5839276525
     N     9.2031546401    2.9009289554    3.6729376708
     C    10.2232507369    3.8269127430    3.8395263608
     C    11.5752584793    3.5108834753    3.9338463778
     C    12.5401374305    4.5030157788    4.0932915726
     C    12.1762037130    5.8421842892    4.1598299071
     C    10.7972014421    6.2178992383    4.0740958227
     C     9.8194982329    5.1989183430    3.9139783626
     C     8.4688949744    5.6110724977    3.8325110457
     C     8.1682441401    6.9477960161    3.9103431957
     C     9.2208750413    7.8754698503    4.0694562613
     N    10.4899123562    7.5374901063    4.1492330931
     O    13.0651531219    6.8308553746    4.3023516236
     H     2.3671514889    3.5090152356   -0.0070838397
     H     3.9687238351    3.2589263096    0.7163887027
     H     2.5449523502    3.4949331783    1.7591792023
     H     3.0248692135    1.0850786970   -0.0920546737
     H     1.5892403778    1.3232827150    0.9344617364
     H     4.6461346128   -1.1204493240    3.0890869528
     H     4.6291968600    0.4098592162    3.9547096021
     H     6.9910998366   -2.2945494539    2.9540899619
     H    11.8747312221    2.4692821538    3.8805130848
     H    13.5914699513    4.2344593012    4.1645021460
     H     7.6942174374    4.8618784200    3.7097928385
     H     7.1423238905    7.2979373790    3.8515301134
     H     8.9970972318    8.9396146207    4.1324612848
     H    13.9612050823    6.4577495270    4.3428173112
