41
-1.0516252211986221e+03 frame 62   xyz file generated by TeraChem
     C     6.1101141373   -0.6421990556    0.9405846813
     C     4.9999789804   -0.9411873580   -0.0435289531
     O     5.2076310324   -0.2571015809   -1.2937973157
     C     4.8106883774    1.0263230374   -1.3613850472
     O     4.2442036607    1.5880285742   -0.4402088734
     C     5.1323519928    1.6450256516   -2.6529840026
     C     4.5189394858    2.7894788059   -3.1109988516
     N     5.1391847974    3.1952519809   -4.2733801628
     C     6.1474801162    2.3392785844   -4.6635588433
     O     6.7936825085    2.4939709249   -5.6930175650
     C     6.2028237625    1.2951647187   -3.5999745961
     C     7.0778598525    0.2568490441   -3.4606696068
     C     8.2120395468   -0.2521028697   -4.2147149134
     C     8.8548199789   -1.3749103570   -3.6484726428
     C     9.9552016752   -1.9626592051   -4.2559888623
     C    10.4460926012   -1.4418466521   -5.4530438050
     C     9.8239130865   -0.3343731736   -6.0300576916
     C     8.7206316998    0.2572503287   -5.4264054613
     C     3.3809071827    3.5732675728   -2.6191557485
     C     3.4331643771    4.9735564712   -2.6741405093
     C     2.3477695256    5.7353161878   -2.2519736465
     C     1.1930979612    5.1084967960   -1.7887499586
     C     1.1287331420    3.7151400811   -1.7466463494
     C     2.2139451978    2.9504506132   -2.1563815031
     H     5.9605957281   -1.2314398269    1.8516089552
     H     6.1151691087    0.4172165561    1.2126095257
     H     7.0854315324   -0.9042818612    0.5179470181
     H     4.0228090067   -0.6572399107    0.3540013350
     H     4.9822184258   -1.9982723682   -0.3170256568
     H     4.8036317775    3.9372603105   -4.8737851503
     H     6.8894487107   -0.3359077690   -2.5703785684
     H     8.4764143336   -1.7822715175   -2.7138642468
     H    10.4301504527   -2.8255780583   -3.7972687619
     H    11.3077969861   -1.8971244863   -5.9340890603
     H    10.2025971593    0.0728626541   -6.9640226254
     H     8.2396630665    1.1147787068   -5.8805625582
     H     4.3346621505    5.4675784794   -3.0279655789
     H     2.4055277557    6.8196951407   -2.2873522338
     H     0.3429041566    5.7028418445   -1.4650587186
     H     0.2255629248    3.2218364705   -1.3979355149
     H     2.1560931913    1.8672539275   -2.1329370931
