51
-1.2824165092754611e+03 frame 65   xyz file generated by TeraChem
     C     1.6280152185    1.5739456374    1.1114020277
     C     2.3666892798    0.3451952043    0.6256919688
     O     3.0061364068   -0.3402821752    1.7163367663
     C     4.2424141665    0.0581274529    2.0491953242
     O     4.7922426435    1.0111286499    1.5162032097
     C     4.8280220296   -0.7459863329    3.1212135082
     C     4.3964485506   -1.9754135943    3.5715259975
     N     5.1240268626   -2.3160530442    4.6921446759
     C     6.0822027768   -1.3782424961    5.0146242819
     O     6.8572643329   -1.5115693606    5.9538345404
     C     5.9233764778   -0.3020629774    3.9954496577
     C     6.6114748200    0.8684171297    3.8501155316
     C     7.6902822219    1.5220099933    4.5724964560
     C     8.3101199274    1.0549198094    5.7486982467
     C     9.3315248098    1.7839552506    6.3449797226
     C     9.7652017290    2.9884890235    5.7910256344
     C     9.1645873262    3.4676359942    4.6268409117
     C     8.1407859224    2.7451711872    4.0294585218
     C     3.3957535034   -2.9354207318    3.0964011006
     C     3.2630967346   -3.2565019640    1.7388093534
     C     2.3514331432   -4.2176259419    1.3288691290
     C     1.5390407644   -4.8927562792    2.2534850772
     C     1.6798711172   -4.5699587936    3.6102309728
     C     2.5975929944   -3.6151278390    4.0269882900
     C     0.5725689299   -5.9219132224    1.8117094447
     C     0.8620325983   -6.7590007440    0.7238863821
     C    -0.0437846334   -7.7322880687    0.3133783020
     C    -1.2578290712   -7.8878417723    0.9806344839
     C    -1.5588443772   -7.0610027062    2.0619431224
     C    -0.6530310759   -6.0881625462    2.4735153401
     H     1.0873479506    2.0325558060    0.2765456211
     H     2.3256028627    2.3116138490    1.5182847639
     H     0.9025235858    1.3074850598    1.8864634218
     H     3.1184044611    0.5994574272   -0.1254280208
     H     1.6788689271   -0.3944243865    0.2091569860
     H     5.0773559114   -3.2171017511    5.1497710081
     H     6.2779202623    1.4429498907    2.9882603548
     H     7.9813653405    0.1171289669    6.1792764932
     H     9.7954833351    1.4069795127    7.2528732406
     H    10.5663129854    3.5506466593    6.2638031130
     H     9.4938049048    4.4051247459    4.1869580527
     H     7.6740180191    3.1248109185    3.1234005769
     H     3.8860973558   -2.7584891683    1.0031681388
     H     2.2594303710   -4.4389929517    0.2691608795
     H     1.0823082168   -5.0886636948    4.3546293874
     H     2.6840467557   -3.3863972181    5.0861894640
     H     1.8156435920   -6.6640729922    0.2112766925
     H     0.2038433879   -8.3767722794   -0.5260701259
     H    -1.9649567711   -8.6482352451    0.6600533622
     H    -2.5062768953   -7.1683154490    2.5836783396
     H    -0.9087326904   -5.4343935516    3.3031973316
