47
-1.2050905490370660e+03 frame 74   xyz file generated by TeraChem
     C     5.8393806296    2.4271742584    0.4771682460
     C     4.5709093843    2.0044280369    1.1864054307
     O     4.8080743195    0.9031948456    2.0829822240
     C     4.7915784251   -0.3315223736    1.5478677319
     O     4.5656901675   -0.5306966447    0.3669265085
     C     5.0671608869   -1.3705446313    2.5431301441
     C     4.8245178342   -2.7107227520    2.3341478354
     N     5.3175448414   -3.4336279212    3.3994051933
     C     5.8734570542   -2.6274281076    4.3744484711
     O     6.3086505519   -3.0432807839    5.4368747223
     C     5.7473104389   -1.2369579183    3.8378615535
     C     6.1200832334   -0.0930630211    4.4689438516
     C     6.8686565382    0.1032472784    5.7069838529
     C     7.9700628753   -0.6743875806    6.0287937284
     C     8.7630761565   -0.3947313177    7.1572362333
     C     8.4580889540    0.6678206505    7.9745902182
     C     7.3413935031    1.4942487821    7.6947795757
     C     6.5306084286    1.2178999341    6.5508690807
     C     5.4038568163    2.0456311471    6.3125170652
     C     5.1125120332    3.1044803337    7.1419008106
     C     5.9250381292    3.3841274677    8.2623623090
     C     7.0133556145    2.5903321510    8.5330244462
     C     4.1470768508   -3.4382074357    1.2555818978
     C     4.6757892161   -4.6543772665    0.8002702835
     C     4.0226128320   -5.3758772840   -0.1946156191
     C     2.8262567612   -4.9025347779   -0.7294138374
     C     2.2855429091   -3.7021944692   -0.2669444634
     C     2.9405380470   -2.9717793824    0.7163927387
     H     5.6341406337    3.3042277696   -0.1460484502
     H     6.2107065658    1.6256709134   -0.1678279739
     H     6.6198625586    2.6937215605    1.1971026417
     H     3.7930390571    1.7155869611    0.4757929684
     H     4.1911560879    2.7987455713    1.8325035055
     H     5.1585036933   -4.4228510706    3.5398926707
     H     5.8241694006    0.8231401675    3.9665944672
     H     8.2413391625   -1.5008550093    5.3825328663
     H     9.6258814907   -1.0199113379    7.3696531266
     H     9.0693236897    0.8925703020    8.8455101822
     H     4.7500498661    1.8323743664    5.4723382145
     H     4.2450490646    3.7263251157    6.9373756615
     H     5.6825006994    4.2216660386    8.9107231583
     H     7.6423715247    2.7869088227    9.3982981328
     H     5.6122278351   -5.0240190797    1.2105123296
     H     4.4490585403   -6.3097313470   -0.5502121823
     H     2.3127867402   -5.4689819309   -1.5016629722
     H     1.3460940555   -3.3357698549   -0.6716620235
     H     2.5142895356   -2.0431183474    1.0801229156
