57
-1.4358816712086923e+03 frame 57   xyz file generated by TeraChem
     C     1.6065561136   -1.8834169275   -0.4087673218
     C     2.3456729515   -0.5891427893   -0.6709111157
     O     2.9357923219   -0.5795957210   -1.9829378935
     C     4.1607755213   -1.1136528786   -2.0990958243
     O     4.7339270062   -1.6602723269   -1.1676810196
     C     4.7107824447   -1.0044692367   -3.4482200105
     C     4.2740770135   -0.2039897759   -4.4819591568
     N     4.9716782344   -0.5315157611   -5.6267679050
     C     5.9461115211   -1.4869717095   -5.4011450934
     O     6.7145514064   -1.8913417640   -6.2609496271
     C     5.7927672183   -1.8503117501   -3.9616592615
     C     6.4236881251   -2.8454779975   -3.2821417649
     C     7.5321597921   -3.7097929441   -3.6651715393
     C     8.5879007824   -3.2476522141   -4.4377843629
     C     9.7157611854   -4.0467354380   -4.6992601650
     C     9.7980653484   -5.3195104113   -4.1874176675
     C     8.7484361307   -5.8460257287   -3.3939929764
     C     7.5968536023   -5.0431931071   -3.1235920781
     C     6.5533533845   -5.6141082384   -2.3512835107
     C     6.6563360917   -6.8918147074   -1.8496668212
     C     7.8027896746   -7.6747417451   -2.1048445484
     C     8.8238544355   -7.1602741387   -2.8664253106
     C     3.3007519880    0.8879265241   -4.5552286239
     C     3.2310648814    1.8692499103   -3.5567856524
     C     2.3393585540    2.9248579305   -3.6684518555
     C     1.4828119354    3.0385334300   -4.7749261154
     C     1.5637646310    2.0588803645   -5.7743848357
     C     2.4629740612    1.0058493709   -5.6730365732
     C     0.5256219824    4.1605696879   -4.8876090198
     C     0.8536056599    5.4386788375   -4.4121517748
     C    -0.0475432510    6.4932698024   -4.5244223310
     C    -1.2954829556    6.2908476688   -5.1118069606
     C    -1.6348115632    5.0247634848   -5.5860943283
     C    -0.7334778584    3.9703869009   -5.4757483659
     H     1.1118779878   -1.8325169548    0.5671048100
     H     2.2973454943   -2.7313294469   -0.4020921886
     H     0.8417305995   -2.0560127088   -1.1727503014
     H     3.1288643079   -0.4177971587    0.0716590872
     H     1.6638962782    0.2646374358   -0.6750104205
     H     4.9252186730   -0.0047573021   -6.4893629841
     H     6.0450024309   -2.9992905424   -2.2744597018
     H     8.5513140304   -2.2394715160   -4.8314948772
     H    10.5264884349   -3.6431288784   -5.2994804403
     H    10.6691001466   -5.9413589462   -4.3810486233
     H     5.6483703245   -5.0447089109   -2.1631027915
     H     5.8433589477   -7.3046030413   -1.2582749844
     H     7.8701040872   -8.6827503545   -1.7047735112
     H     9.7091927674   -7.7541426929   -3.0818216627
     H     3.8872584721    1.8067534025   -2.6951254712
     H     2.2944427682    3.6656098064   -2.8750219693
     H     0.9305862502    2.1327388639   -6.6539825157
     H     2.5037748954    0.2596786678   -6.4624409269
     H     1.8320447036    5.6145192374   -3.9727169993
     H     0.2295310743    7.4782945629   -4.1579094127
     H    -1.9991001568    7.1145001075   -5.1988923698
     H    -2.6085785690    4.8540346700   -6.0377500974
     H    -1.0182054756    2.9826653076   -5.8289573034
