59
-1.4162362157351954e+03 frame 77   xyz file generated by TeraChem
     C     1.6422951021   -1.1286038272    2.1078741953
     C     2.0281639864   -0.9592062599    0.6542338378
     O     2.7630397632   -2.0984033572    0.1728052052
     C     4.0898093287   -2.0944577378    0.3773511406
     O     4.6578546902   -1.2089704440    0.9992470924
     C     4.7566406600   -3.2666878428   -0.1915872800
     C     4.3084468690   -4.0605872458   -1.2246472191
     N     5.1698531471   -5.1316621897   -1.3520542186
     C     6.2280291600   -5.0764927265   -0.4635006768
     O     7.1262245675   -5.9177517972   -0.4457380228
     C     5.9893978244   -3.8590096408    0.3394637591
     C     6.6973086091   -3.3556432143    1.4045330922
     C     7.8734863741   -3.7512376224    2.1243287211
     C     8.6997815372   -4.8700017097    1.8631803917
     C     9.8046690301   -5.1495584553    2.6386037928
     C    10.1657665122   -4.3280647079    3.7391970973
     C     9.3467332780   -3.1999624171    4.0041990797
     C     8.2477398588   -2.9331247502    3.2184681137
     N    11.2510921222   -4.6098246274    4.5071961409
     C    12.0692999055   -5.7715170342    4.2197566603
     C    11.5928116253   -3.7567689784    5.6282487290
     C     3.1871384191   -3.9454728945   -2.1585026188
     C     2.8245329453   -2.7155157819   -2.7252500765
     C     1.7846714319   -2.6373368678   -3.6392401710
     C     1.0694261935   -3.7808619408   -4.0284563229
     C     1.4431595023   -5.0097808621   -3.4674430643
     C     2.4859503152   -5.0934073089   -2.5544495599
     C    -0.0373739791   -3.6934667341   -5.0060568982
     C     0.0079813217   -2.7723551077   -6.0631426206
     C    -1.0319026462   -2.6930541667   -6.9845312041
     C    -2.1387201934   -3.5324580558   -6.8682920119
     C    -2.1972975836   -4.4512734625   -5.8215731075
     C    -1.1574127777   -4.5313512565   -4.9002916589
     H     1.0250134102   -0.2815847427    2.4258297509
     H     2.5318560862   -1.1655139855    2.7432130011
     H     1.0656308682   -2.0477952306    2.2525950593
     H     2.6267802327   -0.0575234682    0.5020766456
     H     1.1465629785   -0.9153213970    0.0103111732
     H     5.1454331898   -5.7992334189   -2.1116794881
     H     6.2606885375   -2.4374509938    1.7937161991
     H     8.4504897388   -5.5182320678    1.0305115532
     H    10.4061249926   -6.0183217326    2.3953078163
     H     9.5801457940   -2.5377912209    4.8299894446
     H     7.6404725424   -2.0606205157    3.4502210520
     H    11.4858184536   -6.6991501232    4.2786349226
     H    12.8740983904   -5.8276447379    4.9525476327
     H    12.5182197173   -5.7109343464    3.2201198060
     H    10.7801819054   -3.7168801025    6.3647580320
     H    11.8116407821   -2.7316194712    5.3028479037
     H    12.4802503835   -4.1554534093    6.1196885545
     H     3.3686320642   -1.8164362095   -2.4538632068
     H     1.5154161201   -1.6683264348   -4.0505701119
     H     0.9265239717   -5.9183894121   -3.7640513111
     H     2.7478731239   -6.0608020092   -2.1333588122
     H     0.8762424212   -2.1288186072   -6.1782998092
     H    -0.9726922265   -1.9781126320   -7.8011016465
     H    -2.9505264589   -3.4706464625   -7.5881498037
     H    -3.0595411174   -5.1046851511   -5.7166384810
     H    -1.2254655879   -5.2358196043   -4.0754052246
