28
-8.2279046358538528e+02 frame 47   xyz file generated by TeraChem
     C     5.0012224599    2.5382196856   -0.9532362087
     C     5.2752311924    1.2051228922   -0.2931834569
     O     5.6503433147    0.2074695551   -1.2656492171
     C     4.6574216529   -0.4265260584   -1.8924371322
     O     3.4686769708   -0.2160512720   -1.6727451161
     C     5.1366794841   -1.4044400234   -2.8654757275
     C     4.2606201285   -2.1748012643   -3.6125593951
     N     2.9362709380   -2.1017022559   -3.5274689979
     C     1.9991742158   -2.8634735248   -4.2421973648
     C     2.3383838097   -4.0362911796   -4.9243801329
     C     1.3526826201   -4.7310985333   -5.6183406717
     C     0.0309393464   -4.2917458527   -5.6369103877
     C    -0.2730645492   -3.1346571728   -4.9361883315
     C     0.6775993005   -2.4083681262   -4.2398314422
     F    -1.5401017577   -2.6856484974   -4.9338845537
     C     6.5275146386   -1.5755238321   -3.0681745553
     N     7.6712217421   -1.7202874594   -3.2380426170
     H     4.7942377708    3.2894555973   -0.1837261798
     H     4.1335233827    2.4765382726   -1.6163494166
     H     5.8681825561    2.8696237784   -1.5332576076
     H     4.4085574721    0.8436666615    0.2653784749
     H     6.1354796163    1.2595191486    0.3769726298
     H     4.6693871730   -2.8830191263   -4.3265312303
     H     2.5872493111   -1.3929710365   -2.8777659201
     H     3.3508182050   -4.4253985483   -4.9045633071
     H     1.6198650585   -5.6415274555   -6.1467019457
     H    -0.7469003851   -4.8280863229   -6.1701251683
     H     0.3927095250   -1.5010141502   -3.7158196096
