49
-1.6164837067241119e+03 frame 71   xyz file generated by TeraChem
     C     3.6554240682    0.1951309011    0.3988378611
     C     3.3765182153    0.5446124629   -1.0579548707
     N     3.4194470462   -0.6139451311   -1.9432443704
     C     2.3279591590   -1.3867873480   -2.1680667967
     C     1.1085126136   -1.1748885870   -1.4661701592
     C     0.0095059436   -1.9666294333   -1.7079301575
     C     0.0435063439   -3.0111039451   -2.6523714402
     C     1.2508219468   -3.2313221472   -3.3535342437
     C     2.3551709391   -2.4496458994   -3.1225695196
     N    -1.1212508103   -3.7262384237   -2.8088044994
     N    -1.0883736561   -4.6569559318   -3.6798036837
     C    -2.2810620138   -5.3473504216   -3.7984988123
     S    -2.3048671864   -6.6056667085   -5.0103043994
     C    -3.9307145489   -6.9414187116   -4.5918912328
     C    -4.3450008672   -6.1019268886   -3.5810961904
     N    -3.4008005085   -5.2062287173   -3.1438290578
     C    -5.6630301718   -6.0795473461   -2.9397246344
     C    -5.9276580516   -5.2211987202   -1.9139423920
     C    -7.2015594231   -5.1857397462   -1.2699835052
     C    -7.5185379660   -4.3251642102   -0.2030246689
     C    -8.7786631541   -4.3573198090    0.3677770783
     C    -9.7460032734   -5.2496515129   -0.1165368055
     C    -9.4592934236   -6.1090048429   -1.1689983502
     C    -8.1885143771   -6.0664955351   -1.7337145145
     O    -7.9257807004   -6.9136882794   -2.7650878865
     C    -6.7131959379   -6.9870462514   -3.4002411796
     O    -6.6243387524   -7.8021486279   -4.2957182383
     C     4.7086044083   -0.8851563160   -2.5699372448
     C     4.8610172705   -0.2233439309   -3.9339294840
     H     3.6477496528    1.1028279674    1.0116856593
     H     4.6374853070   -0.2788886660    0.5021072804
     H     2.9004069691   -0.4926580703    0.7931177148
     H     4.1276352502    1.2525524802   -1.4228355891
     H     2.4097385734    1.0456496282   -1.1636308051
     H     1.0360515586   -0.3965763749   -0.7161137548
     H    -0.9147098350   -1.7985909925   -1.1612827317
     H     1.2951766402   -4.0279815726   -4.0894099412
     H     3.2543541308   -2.6408513459   -3.6965844476
     H    -4.4985151154   -7.7153877748   -5.0847233642
     H    -5.1459207542   -4.5467886692   -1.5754797856
     H    -6.7571972529   -3.6400153793    0.1605716173
     H    -9.0203040211   -3.6922907543    1.1913859239
     H   -10.7339343884   -5.2724883870    0.3344410066
     H   -10.1960292854   -6.8057880856   -1.5562354251
     H     4.8600613644   -1.9663747688   -2.6390783803
     H     5.4791116820   -0.5147940419   -1.8859507203
     H     4.1126490018   -0.5956295892   -4.6412490557
     H     5.8551589228   -0.4297674701   -4.3446434615
     H     4.7438331186    0.8627414248   -3.8527844061
