58
-1.4454729745040640e+03 frame 56   xyz file generated by TeraChem
     C     2.5677634027   -1.0729348188   -1.4695107492
     C     3.1427917704   -0.8536775969   -0.0743201751
     N     2.1371143319   -0.5044666476    0.9175306470
     C     1.4392497967   -1.4569416319    1.6042047636
     C     0.5261873786   -1.1020213134    2.6364096435
     C    -0.1749529501   -2.0735613933    3.3147818625
     C    -0.0306499529   -3.4448455417    3.0391894967
     C     0.8890461668   -3.8055867216    2.0186219739
     C     1.5952442769   -2.8297858079    1.3234872698
     O     1.1092697033   -5.0865523032    1.6772691851
     C    -0.7679283292   -4.4689601423    3.7374020667
     N    -1.6963123955   -4.2449120709    4.7165338199
     C    -2.1794073504   -5.4638304197    5.1283027019
     C    -1.4893719089   -6.4160850894    4.3451978204
     N    -0.6242624169   -5.7712026201    3.4953357128
     C    -1.7546598757   -7.7765575252    4.5216696955
     C    -2.6974435775   -8.1476606446    5.4683229712
     C    -3.3677662668   -7.1748822090    6.2308576592
     C    -3.1254498004   -5.8105823389    6.0811988730
     N    -4.3271754367   -7.5956784105    7.1867681436
     N    -5.0116219448   -6.7234647216    7.9141207098
     C    -5.7940414383   -7.5024034632    8.6746024154
     C    -5.5266404764   -8.8522449946    8.3494927237
     N    -4.5864186835   -8.8789223475    7.3974292999
     C    -6.2082298815   -9.9336001647    8.9955952009
     C    -5.9818506512  -11.2911627398    8.7119284517
     C    -6.6888229865  -12.2682506002    9.3876470624
     C    -7.6372309046  -11.9102732435   10.3612014491
     C    -7.8704139693  -10.5791641754   10.6506043642
     C    -7.1662115538   -9.5581759032    9.9795628221
     C    -7.4116229459   -8.1685663511   10.2836224785
     C    -6.7564920133   -7.1482804570    9.6621444479
     C     1.9042831290    0.9185734009    1.1179721779
     C     2.7466868814    1.5174526625    2.2382579648
     H     3.3693608717   -1.3065998397   -2.1787437597
     H     2.0523827563   -0.1724869531   -1.8218821051
     H     1.8507063137   -1.9002737027   -1.4760807572
     H     3.8710341866   -0.0357733147   -0.0967281424
     H     3.6944018075   -1.7386311909    0.2600472717
     H     0.3834153946   -0.0661368610    2.9184325896
     H    -0.8558972024   -1.7511824658    4.0986815624
     H     2.2595745716   -3.1765886814    0.5406234658
     H     0.5303344645   -5.6574383978    2.2583932611
     H    -1.9927582274   -3.3468288039    5.0710961737
     H    -1.2371201118   -8.5267636946    3.9317848809
     H    -2.9288042113   -9.1937582270    5.6304283782
     H    -3.6504715564   -5.0746761184    6.6780618738
     H    -5.2473280876  -11.5606467308    7.9579506711
     H    -6.5109948925  -13.3168827370    9.1654380128
     H    -8.1887642423  -12.6843690514   10.8877532046
     H    -8.6040511515  -10.3010957876   11.4037271725
     H    -8.1557511723   -7.9484428684   11.0451913421
     H    -6.9521792399   -6.1079325611    9.9019730740
     H     0.8387362151    1.0943689120    1.2970810208
     H     2.1351780395    1.4185815279    0.1710120532
     H     2.5137727226    1.0500658789    3.2008074891
     H     2.5579745547    2.5932876124    2.3234826988
     H     3.8141788570    1.3727194969    2.0385230332
