62
-2.0689077787423776e+03 frame 74   xyz file generated by TeraChem
     C     2.4629313455    0.9250592899   -1.3785398274
     C     3.1032173525   -0.3091507708   -0.7508878457
     N     2.1558170725   -1.1589498187   -0.0464846272
     C     1.4470014527   -2.1333236209   -0.6900649639
     C     0.6057011096   -3.0306543009    0.0256847916
     C    -0.1007225483   -4.0083372004   -0.6382213796
     C    -0.0344467639   -4.1770194437   -2.0328479832
     C     0.8024885804   -3.2828967977   -2.7527140572
     C     1.5186468136   -2.2925413947   -2.0891240143
     O     0.9330578928   -3.3465680800   -4.0886660062
     C    -0.7629864146   -5.2029253149   -2.7370373481
     N    -1.5685316433   -6.1423320225   -2.1546028644
     C    -2.0786595514   -6.9391670258   -3.1510734120
     C    -1.5358335025   -6.4217541426   -4.3491414091
     N    -0.7268872573   -5.3506402961   -4.0610480183
     C    -1.8663920792   -7.0143439614   -5.5707452946
     C    -2.7244489142   -8.1031444732   -5.5640190700
     C    -3.2486570672   -8.5918297370   -4.3547722358
     C    -2.9411103210   -8.0245110131   -3.1195387547
     N    -4.1265228311   -9.7058981474   -4.3912189542
     N    -4.4908317626  -10.3390590322   -3.2857224218
     C    -5.3062665914  -11.3025249533   -3.7374222504
     C    -5.3860719553  -11.1909577913   -5.1428373024
     N    -4.6249916004  -10.1620784432   -5.5314901368
     C    -6.1896251840  -12.0840061620   -5.9206586432
     C    -6.3086642036  -12.0093869430   -7.3147736620
     C    -7.1050135946  -12.9325506387   -7.9679976377
     C    -7.8027484844  -13.9363538953   -7.2774340332
     C    -7.6921785551  -14.0023551424   -5.9036591813
     C    -6.8908643222  -13.0874847750   -5.1907873098
     C    -6.7810978526  -13.1702114964   -3.7554948190
     C    -6.0151128854  -12.3110337688   -3.0261054609
     S    -7.3214447587  -12.8102428213   -9.7200983457
     O    -7.8120880763  -14.0869578997  -10.2187803277
     O    -8.0247763240  -11.5841842935  -10.0587868629
     O    -5.8252704408  -12.5610365882  -10.2615527824
     C     2.0018032973   -0.9101351454    1.3794135109
     C     2.9234384683   -1.7608352941    2.2459466437
     H     3.2239818797    1.5364552537   -1.8757496312
     H     1.9772752934    1.5409411624   -0.6135434198
     H     1.7085070242    0.6450251910   -2.1206675600
     H     3.8649014173   -0.0029313495   -0.0257959044
     H     3.6280489123   -0.9003165155   -1.5088992392
     H     0.5235505438   -2.9734741347    1.1040514732
     H    -0.7262074249   -4.6703446767   -0.0445705621
     H     2.1198223606   -1.6337736400   -2.7045272031
     H     0.3550334164   -4.0937768379   -4.4138774584
     H    -1.7525512451   -6.2486996031   -1.1670900057
     H    -1.4588281216   -6.6350543829   -6.5027088065
     H    -2.9989688331   -8.5910348570   -6.4918188325
     H    -3.3597895358   -8.4138345637   -2.1991667332
     H    -5.7701334700  -11.2421263608   -7.8626007626
     H    -8.4116655499  -14.6487882914   -7.8236163863
     H    -8.2264653272  -14.7735057885   -5.3552935524
     H    -7.3400411641  -13.9569140816   -3.2558859184
     H    -5.9424550728  -12.3848525708   -1.9456966761
     H    -5.3077892881  -13.3887881599  -10.2084894800
     H     0.9552433333   -1.0593876570    1.6627044846
     H     2.2094261869    0.1523510732    1.5479916483
     H     2.7301947579   -2.8284073322    2.0974623404
     H     2.7717386591   -1.5280179359    3.3057182740
     H     3.9736889112   -1.5672539824    2.0012146368
