62
-2.0689115370724840e+03 frame 108   xyz file generated by TeraChem
     C     2.7679364946    0.8080934746   -1.3899697929
     C     3.1328797797   -0.2218148691   -0.3258614565
     N     1.9749523272   -0.8617908044    0.2789279248
     C     1.3945154296   -1.9690958042   -0.2709754401
     C     0.3139281664   -2.6317963626    0.3762470211
     C    -0.2636665564   -3.7448850371   -0.1903095097
     C     0.1737110877   -4.2848456081   -1.4132397115
     C     1.2548429017   -3.6303751066   -2.0615797582
     C     1.8408901312   -2.5024698530   -1.4976815485
     O     1.7450177995   -4.0592176045   -3.2370845697
     C    -0.4321853250   -5.4450690469   -2.0155566158
     N    -1.4727978231   -6.1541964806   -1.4827758781
     C    -1.7757375130   -7.1751060531   -2.3491711207
     C    -0.8621306666   -7.0338469444   -3.4194089773
     N    -0.0436239922   -5.9580336398   -3.1835839316
     C    -0.9117802933   -7.9260687171   -4.4946009489
     C    -1.8678694208   -8.9299167899   -4.4745169337
     C    -2.7638241751   -9.0355020129   -3.3975567184
     C    -2.7453750812   -8.1645738406   -2.3097786689
     N    -3.7383340962  -10.0655310438   -3.4220589104
     N    -4.1235772951  -10.6489114710   -4.5404291538
     C    -5.0590856321  -11.5237983277   -4.1381604901
     C    -5.2085903515  -11.4072043977   -2.7377904660
     N    -4.3409204486  -10.4749827962   -2.3186319269
     C    -6.1357778043  -12.2109510306   -1.9988285126
     C    -6.8539312083  -13.1632295324   -2.7821991189
     C    -6.6734060697  -13.2525572805   -4.2100735501
     C    -5.8104772683  -12.4580442265   -4.8992673148
     C    -7.7638004022  -14.0331299263   -2.1463724603
     C    -7.9687568020  -13.9831397709   -0.7846917302
     C    -7.2822198526  -13.0388274347   -0.0096012454
     C    -6.3885645726  -12.1669403821   -0.6046142480
     S    -5.7096273259  -10.9191990166    0.4736736422
     O    -6.1789935154   -9.6132664357    0.0243856049
     O    -5.9380289061  -11.3265776997    1.8503693127
     O    -4.1329223257  -11.0122306542    0.2636142033
     C     1.4372428895   -0.2194386237    1.4695535364
     C     2.0064286156   -0.7769540254    2.7693913192
     H     3.6728484064    1.2748713738   -1.7942643037
     H     2.1390091280    1.5971183270   -0.9630688280
     H     2.2209620801    0.3457510159   -2.2180974227
     H     3.6938046859    0.2619540994    0.4811322219
     H     3.7978389369   -0.9874001677   -0.7385499198
     H    -0.0564943737   -2.2816110885    1.3317094331
     H    -1.0840387139   -4.2183710497    0.3431019580
     H     2.6422367038   -2.0364923237   -2.0586821012
     H     1.2158099350   -4.8589208737   -3.5145487440
     H    -1.9387326022   -5.9727898796   -0.6049360902
     H    -0.2162566021   -7.8389756480   -5.3234217989
     H    -1.9330891761   -9.6447667692   -5.2868958074
     H    -3.4590918132   -8.2496886760   -1.4980053036
     H    -7.2666083506  -13.9950928975   -4.7366571977
     H    -5.6855797827  -12.5326196358   -5.9743195417
     H    -8.3046639433  -14.7525414046   -2.7555008052
     H    -8.6661701036  -14.6635433390   -0.3062439013
     H    -7.4504548672  -12.9806525688    1.0604536746
     H    -3.9354228754  -10.6468084965   -0.6534030254
     H     0.3450906155   -0.2899096476    1.4622636208
     H     1.6685722108    0.8486263581    1.3929622254
     H     1.7687837789   -1.8398648454    2.8839423497
     H     1.5910228487   -0.2378427801    3.6279768956
     H     3.0963402110   -0.6673652462    2.7931810375
