43
-1.7488275118672304e+03 frame 102   xyz file generated by TeraChem
     C     1.0777964479   -0.5290949057   -0.0407674785
     C     2.5795649694   -0.6819140340   -0.2463779352
     C     2.9545809080   -0.5411993643   -1.7182817729
     N     4.3924261575   -0.6658826694   -1.9402289145
     C     5.2372502316    0.4281460441   -2.0995558600
     N     4.6901543216    1.6513711202   -2.2219109757
     N     5.5268719631    2.6157987715   -2.3293154997
     C     4.9297206593    3.8518928388   -2.4602302788
     S     6.0715594229    5.1916084452   -2.5843349264
     C     4.7209618926    6.2782672461   -2.6975853927
     C     3.5213943439    5.5294045336   -2.6342750771
     N     3.6680207462    4.1694798223   -2.5017627661
     C     2.2961993469    6.2104172488   -2.7072939261
     C     2.2973026862    7.5873612626   -2.8371616743
     C     3.4945759267    8.3330829749   -2.8986460524
     C     4.7152170915    7.6665496478   -2.8283138736
     C     3.4416984124    9.8283452006   -3.0416372339
     C     6.5639463257   -0.0378660849   -2.1061776906
     C     6.5101501593   -1.4099090346   -1.9425632946
     C     5.1534853918   -1.7871103113   -1.8383667230
     C     4.6527159688   -3.1326086023   -1.6456460406
     C     3.5212130749   -3.7619439610   -2.1192612930
     C     3.4362579945   -5.1241936180   -1.7319694564
     C     4.4988941637   -5.5263133424   -0.9700030276
     S     5.6129036557   -4.2460412525   -0.7103492416
     H     0.8198313658   -0.6155369075    1.0194977376
     H     0.5231480244   -1.3018669994   -0.5858076833
     H     0.7276295924    0.4475909377   -0.3945132251
     H     2.9135727789   -1.6589647525    0.1223684977
     H     3.1219415775    0.0802208889    0.3268447318
     H     2.6730314646    0.4469828834   -2.0867970202
     H     2.4333562196   -1.2795756552   -2.3299130911
     H     1.3675669009    5.6488418597   -2.6601629678
     H     1.3490054712    8.1169713393   -2.8924964506
     H     5.6468373725    8.2242098702   -2.8731603626
     H     2.9516763832   10.1179464712   -3.9791746831
     H     4.4442010308   10.2656860726   -3.0351285759
     H     2.8662223804   10.2827561744   -2.2264658450
     H     7.4373706077    0.5843157917   -2.2421525420
     H     7.3419269304   -2.1025347309   -1.9319456935
     H     2.7901882937   -3.2822689271   -2.7593494022
     H     2.6223791136   -5.7821124142   -2.0171962918
     H     4.6890066868   -6.5022340307   -0.5410161455
