40
-1.7095577477382342e+03 frame 31   xyz file generated by TeraChem
     C     0.8058610035    0.9190136019    2.5366391677
     C     2.3216675655    0.7719915923    2.5736551463
     C     2.9461943921    1.1795206386    1.2430760804
     N     4.4018664135    1.0658593357    1.2499170229
     C     5.2511677770    2.1451218215    1.4744279743
     N     4.7205804806    3.3792499043    1.5299360342
     N     5.5552528103    4.3249982221    1.7567890302
     C     4.9686807791    5.5719229798    1.8159132849
     N     3.7139756838    5.9073067077    1.7307779574
     C     3.5731784181    7.2697324837    1.8500362298
     C     4.7745087152    8.0000874174    2.0332710911
     S     6.1129080161    6.8926138056    2.0557076437
     C     4.7750519446    9.3878216273    2.1664123129
     C     3.5534776524   10.0479444087    2.1170457946
     C     2.3541380935    9.3390855764    1.9383940626
     C     2.3524398540    7.9597146469    1.8045515893
     C     6.5642861842    1.6543026327    1.5914406558
     C     6.4959721125    0.2812724831    1.4454053511
     C     5.1446454548   -0.0707566173    1.2340224030
     C     4.6284054882   -1.4111986062    1.0440210697
     C     3.6189906563   -1.8914301553    0.2376402965
     C     3.4709842341   -3.3007839612    0.3086821532
     C     4.3650244629   -3.8854187873    1.1633216650
     S     5.3952215769   -2.7234602614    1.8955099811
     H     0.3632800631    0.6372248191    3.4973684518
     H     0.3652886707    0.2790711848    1.7631271253
     H     0.5141275329    1.9536740614    2.3220866676
     H     2.5947747971   -0.2649034417    2.8031298252
     H     2.7456968551    1.3993119394    3.3674947010
     H     2.7221954461    2.2255712465    1.0256634291
     H     2.5465032730    0.5811200895    0.4230649948
     H     5.7015082273    9.9371317112    2.3048459086
     H     3.5283205597   11.1292357829    2.2190043422
     H     1.4136809186    9.8819679343    1.9042853287
     H     1.4295496936    7.4041352394    1.6654969056
     H     7.4420949173    2.2667566855    1.7425523834
     H     7.3193466641   -0.4213355239    1.4485863304
     H     3.0277018672   -1.2668448211   -0.4215598598
     H     2.7359410543   -3.8589867223   -0.2611290745
     H     4.4745334461   -4.9342697264    1.4092239053
