77
-1.6547358294706160e+03 frame 56   xyz file generated by TeraChem
     C     3.3549730487    1.0562332021    0.3432772571
     C     2.5140463126   -0.2007227417    0.1552748886
     C     2.9324075205   -1.3494669931    1.0520262967
     O     4.2587719813   -1.7304272865    0.7217296833
     C     4.7553168828   -2.8097909721    1.4848656033
     C     4.3512722836   -4.1488893707    0.8312632997
     C     4.8902258346   -4.3156748417   -0.5758377280
     C     4.2630968340   -3.6501373367   -1.5383674307
     O     3.6871743314   -3.0893904713   -2.3880843733
     C     6.0868163634   -5.0668026435   -0.9251631918
     C     6.8824399316   -5.7195459560   -0.0526814753
     C     8.1008904014   -6.4570873816   -0.3827980211
     C     8.4774896084   -6.8170068419   -1.6837349779
     C     9.6663099375   -7.4973518742   -1.9345850314
     C    10.5220697824   -7.8488010488   -0.8874924096
     C    10.1573497225   -7.4961648363    0.4272195238
     C     8.9703987870   -6.8209724256    0.6609910439
     O    10.9416950850   -7.8627280070    1.4900594884
     C    12.1241073743   -7.0821416755    1.6429963695
     O    11.6857776594   -8.5279632045   -1.0274552743
     C    12.0832487642   -8.9230837161   -2.3361932422
     C    13.3944860574   -9.6718181866   -2.2153187572
     C    13.9072048101  -10.1297162304   -3.5753533411
     C     6.2398057153   -2.6945382583    1.6454784677
     C     6.9976758429   -1.7246470033    1.1194612227
     C     8.4544818285   -1.5989387268    1.2196210531
     C     9.0825292921   -0.4695254844    0.6852974211
     C    10.4652017847   -0.2996163839    0.7427277084
     C    11.2670984948   -1.2691319781    1.3442080799
     C    10.6478140403   -2.4151846547    1.8908180767
     C     9.2747417821   -2.5684900154    1.8245907931
     O    11.4107329287   -3.4136329576    2.4415344714
     C    11.8935278830   -3.1206652674    3.7493501025
     O    12.6152644922   -1.2142156549    1.4438935559
     C    13.2853710688   -0.1012790327    0.8590930086
     C    14.7704954394   -0.2775612332    1.0961573932
     C    15.5762982706    0.8597151143    0.4803626439
     H     3.0013983863    1.8662572579   -0.3036329404
     H     4.4065184802    0.8686689085    0.1035214000
     H     3.3052721976    1.4090753477    1.3805997023
     H     2.5612566588   -0.5367531961   -0.8888046121
     H     1.4596758514    0.0172911540    0.3674792240
     H     2.2450052272   -2.1983543911    0.9209649095
     H     2.8889092083   -1.0466699771    2.1106747971
     H     4.2942020770   -2.7938877070    2.4877944277
     H     3.2573098658   -4.2088866247    0.8266285982
     H     4.6975943800   -4.9844448219    1.4482063987
     H     6.3431498497   -5.0742984980   -1.9835713764
     H     6.6480588179   -5.6845000381    1.0098098548
     H     7.8328034457   -6.5792014703   -2.5255501391
     H     9.9149963884   -7.7643216563   -2.9563297677
     H     8.7241472129   -6.5705604632    1.6905041579
     H    12.6307483448   -7.4626218823    2.5327753187
     H    11.8756710763   -6.0233506958    1.7889118677
     H    12.7834709616   -7.1891439529    0.7752719789
     H    12.1990170844   -8.0362428207   -2.9750627859
     H    11.3088871165   -9.5636767342   -2.7812806574
     H    13.2491436117  -10.5336589741   -1.5527196786
     H    14.1311907825   -9.0173418160   -1.7332510062
     H    13.1929813482  -10.8030425820   -4.0635958069
     H    14.8558966987  -10.6658638590   -3.4728773969
     H    14.0740784666   -9.2767090987   -4.2432873955
     H     6.6863238597   -3.4975112999    2.2305272104
     H     6.4995586061   -0.9380156027    0.5546446845
     H     8.4784047180    0.2987166337    0.2079205294
     H    10.9097039847    0.5897847455    0.3092006858
     H     8.8553146276   -3.4771704760    2.2479627595
     H    12.4535577015   -3.9996320187    4.0755028846
     H    11.0597873255   -2.9425604690    4.4395032628
     H    12.5556578446   -2.2483948380    3.7423332128
     H    12.9268993820    0.8315570828    1.3161458732
     H    13.0625818304   -0.0606535875   -0.2162325992
     H    15.0843043039   -1.2389982020    0.6714804408
     H    14.9517771606   -0.3299148063    2.1768392031
     H    15.4272924452    0.9090982372   -0.6045513455
     H    16.6463466378    0.7227870843    0.6653207160
     H    15.2848963484    1.8283450761    0.9030813965
