8
-2.2883580353305007e+02 frame 10   xyz file generated by TeraChem
     C     0.9988917810    0.0429342399    0.0131499086
     C     2.4977381377    0.0390623657    0.1295215321
     O     3.1144040036    0.2289080432    1.1538541036
     O     3.1775884264   -0.1953044533   -1.0077187408
     H     0.5533785897    0.2509743890    0.9858964052
     H     0.6477811285   -0.9287729618   -0.3516957675
     H     0.6787091053    0.8026285811   -0.7086109828
     H     2.5669888314   -0.3284202297   -1.7516065893
