37
-1.0245442693299140e+03 frame 49   xyz file generated by TeraChem
     C     0.8832147410   -0.3268750766    0.7437710904
     C     2.3456815524   -0.3875397014    0.3769770295
     O     2.7162671422   -0.7250972035   -0.7413748000
     N     3.2011555753   -0.0164001444    1.3810117917
     C     4.5940633154    0.0720618347    1.3635096890
     C     5.3802021267   -0.2437710763    0.2396573884
     C     6.7583835378   -0.1315645756    0.3061280258
     C     7.3920185386    0.2943420974    1.4834308825
     C     6.6038756128    0.6059459937    2.5986162050
     C     5.2252211372    0.4983688449    2.5423862501
     N     8.7774633573    0.4398433927    1.6559689606
     N     9.4755691881    0.1760614575    0.6406516323
     C    10.8583510268    0.3145228085    0.8101076863
     C    11.4736078300    0.7001622429    1.9920731644
     C    12.8628896713    0.8138260177    2.0861332064
     C    13.6726924175    0.5433627735    0.9946429813
     C    13.0862614487    0.1433572153   -0.2468019706
     C    11.6693559593    0.0293057129   -0.3326515324
     C    11.1337026703   -0.3708452649   -1.5802608164
     C    11.9812709627   -0.6247516524   -2.6289541327
     C    13.3716694949   -0.4786867457   -2.4313621532
     N    13.9156597212   -0.1105555292   -1.2914861441
     O    15.0115886050    0.6372367050    1.0345213859
     H     0.3910216363   -1.2273809487    0.3676952479
     H     0.4311786851    0.5337129456    0.2381702861
     H     0.7024318252   -0.2352350226    1.8176471946
     H     2.7687353219    0.2389696456    2.2597392294
     H     4.8962402142   -0.5733323683   -0.6695161421
     H     7.3622246622   -0.3770472565   -0.5615071048
     H     7.0955604921    0.9352507108    3.5097216167
     H     4.6244041797    0.7444030564    3.4148074482
     H    10.8554680661    0.9156967586    2.8573960388
     H    13.3182262710    1.1172160104    3.0262033642
     H    10.0588085553   -0.4706031062   -1.6856323058
     H    11.6015598611   -0.9330954219   -3.5982652859
     H    14.0571453027   -0.6763944569   -3.2547381545
     H    15.2851916383    0.9137098596    1.9241948942
