15
-3.2530247861662184e+02 frame 28   xyz file generated by TeraChem
     C     1.1186738921    0.2064471655   -0.3758497286
     C     2.2203333415   -0.1905788607    0.2692107581
     C     3.0710976767   -1.3343345505   -0.0820093758
     C     2.8307781754   -2.1793503359   -1.1748887658
     C     3.6979379388   -3.2347629463   -1.4197144770
     N     4.7739074373   -3.5142351116   -0.6718762790
     C     5.0014085479   -2.7079389721    0.3692868685
     C     4.1951256580   -1.6244745925    0.7006000585
     H     0.5573250656    1.0705780628   -0.0323570220
     H     0.7345595294   -0.3015182951   -1.2572325927
     H     2.5447467416    0.3687623061    1.1462685030
     H     1.9808411085   -2.0233162612   -1.8319884504
     H     3.5184939899   -3.8956303741   -2.2664258802
     H     5.8766671196   -2.9377306019    0.9752323877
     H     4.4383572790   -1.0082409691    1.5623327943
