22
-1.0259130415420600e+03 frame 27   xyz file generated by TeraChem
     C     0.8427204254    1.0384408733   -0.6338687669
     O     1.3749538874    1.9407020447   -1.5987055783
     C     2.4634940984    1.2968216840   -2.1206119928
     C     2.7746242737    0.1918197485   -1.3109529291
     O     1.8810025991    0.1390572065   -0.2706659391
     C     3.8429387566   -0.6342451056   -1.5512284968
     C     4.6287688387   -0.3103253628   -2.6796558225
     C     4.2995086566    0.8173487747   -3.4922788263
     C     3.1999585858    1.6519481990   -3.2251440499
     N     5.2090208765    0.9111944994   -4.5216228464
     C     6.1130177341   -0.1163813704   -4.4066961481
     C     5.7845718761   -0.8787657550   -3.2908011810
     S     6.8989715020   -2.1883972530   -3.0975304717
     C     7.7785195784   -1.6854642439   -4.5153407109
     C     7.2571792205   -0.5736486203   -5.1155825646
     H     0.0097771642    0.4782178777   -1.0813289082
     H     0.5202246856    1.5976962649    0.2455047138
     H     4.0708526109   -1.4813156524   -0.9123168234
     H     2.9537442200    2.5093108922   -3.8428689896
     H     5.1965646409    1.6135153541   -5.2463044154
     H     8.6449872033   -2.2573697020   -4.8230014732
     H     7.6721929508   -0.1183783974   -6.0077952668
