11
-2.2710373788446046e+02 frame 12   xyz file generated by TeraChem
     C     0.5191285618    1.1200217725   -0.1070459775
     N     1.1915701615   -0.1640680065    0.1996800944
     N     0.1748317643   -1.1924835238    0.2087126970
     C    -1.0707734927   -0.5226242080    0.1414170563
     C    -0.9458201291    0.8006694881    0.0416381615
     H     0.7509623876    1.4614841721   -1.1295656834
     H     0.8847633082    1.8927548320    0.5785466810
     H     1.4979882031   -0.1133995252    1.1681667963
     H     0.3123169078   -1.7967533260   -0.6013492275
     H    -1.9767255232   -1.1185014914    0.1841950836
     H    -1.7501021958    1.5255895226    0.0147242552
