71
-1.8735914839201669e+03 frame 117   xyz file generated by TeraChem
     C    -0.6896696176   -2.2811354743   -4.4630006438
     C    -0.9540067818   -1.5355155404   -3.1364644920
     C     0.3199793618   -1.3653750539   -2.3146559448
     C     0.9188652923   -2.7278130120   -1.9281245879
     C     0.9292439306   -3.7188129032   -3.1129566937
     C     0.6339522316   -3.0563464890   -4.4579377016
     C    -0.0741722787   -4.7840940101   -2.7270393356
     N    -0.4453569367   -5.7104376047   -3.5394305015
     C    -1.3323347413   -6.7094507086   -3.2055898168
     N    -1.9225879760   -6.9331976483   -2.0158099307
     C    -2.6984494160   -8.0420726951   -2.1833692551
     C    -2.6290486840   -8.5671718343   -3.5082685837
     C    -1.7319142547   -7.6921955948   -4.1755589765
     C    -1.4067940484   -7.8905714883   -5.5232249340
     C    -1.9826679130   -8.9601759523   -6.1898907084
     C    -2.8759858928   -9.8305996649   -5.5263639465
     C    -3.2072272747   -9.6487931676   -4.1933056974
     N    -3.4494618784   -8.5851314673   -1.1813233804
     C    -3.6110603914   -8.2004411878    0.0774153930
     N    -3.0119152502   -7.0952160657    0.6216289661
     C    -3.3710899002   -6.9559042373    1.9291374242
     N    -2.9407481159   -5.9734981444    2.7016395073
     C    -2.0926367504   -4.9236184855    2.3993707387
     N    -1.5530054479   -4.7369110467    1.1655201344
     C    -0.8005880043   -3.6077468938    1.3076725348
     N    -0.0439489782   -2.9849453730    0.3236706779
     C     0.0960238437   -3.4271901030   -0.8672895257
     N    -0.4502267080   -4.5757293580   -1.4256796406
     C    -0.8676337965   -3.0921933425    2.6263631511
     C    -0.2188820353   -1.8861890452    3.2299261031
     C    -0.2852418757   -1.9574739424    4.7601338189
     C    -1.6784330697   -2.3596333485    5.2466997879
     C    -2.0455113979   -3.7768673267    4.7894470874
     C    -1.7096815109   -3.9443008046    3.3386797589
     C    -4.2596868623   -8.0361396991    2.2663343904
     C    -4.4098057415   -8.8207050858    1.0954628877
     C    -5.2221939534   -9.9589531744    1.1029011303
     C    -5.8700894546  -10.2914429370    2.2840367195
     C    -5.7202882193   -9.5124222081    3.4449239902
     C    -4.9169980892   -8.3807705630    3.4494294715
    Mg     2.4906041116    0.5723206841    1.0777963033
     H    -0.6711655493   -1.5712311355   -5.2981361647
     H    -1.5167069447   -2.9715700839   -4.6664729504
     H    -1.6858669889   -2.0907629735   -2.5346241924
     H    -1.4063029948   -0.5572696807   -3.3338849608
     H     0.1248070005   -0.7916559720   -1.4012001086
     H     1.0667721348   -0.8023070090   -2.8894643389
     H     1.9287675163   -2.5710439800   -1.5332823676
     H     1.9064622098   -4.2156653617   -3.1735661295
     H     0.6309830052   -3.8174500973   -5.2452409965
     H     1.4662216840   -2.3774268634   -4.6804177349
     H    -0.7189136492   -7.2175485115   -6.0287252486
     H    -1.7479984425   -9.1367136319   -7.2363171748
     H    -3.3129040927  -10.6610255387   -6.0752397132
     H    -3.8972378571  -10.3325801622   -3.7032143224
     H    -3.9677016076   -9.4203564517   -1.4372221041
     H    -2.3824855413   -6.4582075978    0.1350950386
     H    -3.2810718255   -5.9878259551    3.6572505647
     H    -1.0814295510   -5.1818867795   -0.9117986730
     H    -0.7194898274   -0.9656560028    2.8888896258
     H     0.8261365752   -1.7928814206    2.9025989496
     H     0.0029022443   -0.9906997119    5.1905606897
     H     0.4445989716   -2.6962234049    5.1213590606
     H    -2.4164760756   -1.6475372268    4.8509975358
     H    -1.7325521696   -2.2992881352    6.3401650054
     H    -3.1104123128   -3.9682100887    4.9862153898
     H    -1.4905817789   -4.5064716617    5.3998738354
     H    -5.3470409465  -10.5724660052    0.2147658822
     H    -6.5058616037  -11.1715700781    2.3127831677
     H    -6.2416505369   -9.8019683256    4.3524731389
     H    -4.8072261533   -7.7845577651    4.3512879924
