90
-2.8302164911855552e+03 frame 61   xyz file generated by TeraChem
     C    -8.4646305017    5.0440693808   -2.2221068430
     C    -7.7890652871    3.8315565061   -2.3626584264
     C    -6.8112137453    3.4528092725   -1.4499393114
     C    -6.4780953371    4.2941217592   -0.3779604976
     C    -7.1484497853    5.5180976593   -0.2461125225
     C    -8.1378796320    5.8797357087   -1.1562729303
     N    -5.4856181066    3.8992819843    0.5475005632
     C    -4.2779586481    3.3232455455    0.0738904993
     C    -3.6589140392    3.8497962187   -1.0663999414
     C    -2.4581614718    3.3292537993   -1.5341767053
     C    -1.8375234505    2.2876976485   -0.8479238366
     C    -2.4431028319    1.7643200791    0.2908651625
     C    -3.6725908108    2.2459308135    0.7536810822
     C    -4.2812393953    1.6332357032    1.9662561927
     C    -3.6852220072    1.8889221144    3.1996552188
     C    -4.1998278861    1.4171207477    4.4139019963
     C    -3.5521425780    1.8138902461    5.6696529576
     C    -4.1243641573    2.2153896071    6.8541674967
     C    -3.1744630566    2.6036023018    7.8387588503
     C    -1.8840003874    2.4942724207    7.4004571845
     S    -1.8185204273    1.9175614889    5.7816030037
     C    -5.3596126331    0.6161124524    4.3745756984
     C    -5.9556974195    0.3604087398    3.1412011266
     C    -5.4410223473    0.8322368300    1.9269827001
     C    -6.0887659937    0.4354400094    0.6712952664
     C    -5.5166009774    0.0344171626   -0.5134091063
     C    -6.4666084639   -0.3540612138   -1.4977908698
     C    -7.7570378773   -0.2452952674   -1.0592637585
     S    -7.8224084288    0.3313881871    0.5596046414
     C    -5.9683114636    0.0034602049    5.5871716670
     C    -7.1976833369    0.4850362290    6.0502676224
     C    -7.8032382399   -0.0385369139    7.1889960462
     C    -7.1826040128   -1.0803024558    7.8749237198
     C    -5.9818926865   -1.6008627722    7.4070143133
     C    -5.3630275154   -1.0740167388    6.2667848577
     N    -4.1552905008   -1.6498112598    5.7930521046
     C    -3.1629713937   -2.0449779711    6.7186080975
     C    -2.4933234784   -3.2693720245    6.5872403414
     C    -1.5039847249   -3.6312063323    7.4974307250
     C    -1.1766794716   -2.7952363034    8.5628556216
     C    -1.8515566798   -1.5822889595    8.7030082558
     C    -2.8292928803   -1.2034273773    7.7902134079
     C    -4.1282262673   -2.1842582522    4.4793319069
     C    -5.2378205878   -2.8510613895    3.9503093102
     C    -5.2030604669   -3.3453473493    2.6480533826
     C    -4.0589376106   -3.1991288704    1.8670948198
     C    -2.9432581893   -2.5530023665    2.4021735133
     C    -2.9756694594   -2.0450276231    3.6958757418
     C    -5.5131523212    4.4329351082    1.8615291671
     C    -6.6657490202    4.2928528544    2.6447708835
     C    -6.6984741743    4.8001961587    3.9387187130
     C    -5.5831116764    5.4464928733    4.4742374008
     C    -4.4389957396    5.5935422095    3.6934188921
     C    -4.4038409744    5.0999371265    2.3909301042
     H    -9.2346597994    5.3318781603   -2.9324049269
     H    -8.0342437811    3.1620546895   -3.1834823072
     H    -6.3059615845    2.4972429217   -1.5553606577
     H    -6.8929304786    6.1866877908    0.5700219319
     H    -8.6458914693    6.8332250132   -1.0345943588
     H    -4.1278822263    4.6849408962   -1.5787114736
     H    -1.9976261630    3.7555469257   -2.4214541252
     H    -0.8913974691    1.8831576688   -1.1964373108
     H    -1.9749462792    0.9416953456    0.8263161580
     H    -2.8169711774    2.5421741131    3.2190864432
     H    -5.1972153997    2.2546829175    7.0044312896
     H    -3.4405049713    2.9577604471    8.8293705785
     H    -0.9679433918    2.7149785811    7.9339694501
     H    -6.8239931638   -0.2927962650    3.1217829775
     H    -4.4437749882   -0.0045301546   -0.6639260205
     H    -6.2006206990   -0.7079929719   -2.4884969751
     H    -8.6731135713   -0.4663631835   -1.5925945837
     H    -7.6658449696    1.3077977147    5.5150412330
     H    -8.7493050459    0.3659938324    7.5376868782
     H    -7.6431019243   -1.5067447918    8.7621471982
     H    -5.5129085897   -2.4361151545    7.9191480212
     H    -2.7492956711   -3.9381467854    5.7713998694
     H    -0.9965062943   -4.5850261781    7.3761125249
     H    -0.4067087384   -3.0831592232    9.2731713078
     H    -1.6059173113   -0.9125780802    9.5235259314
     H    -3.3340812777   -0.2475690965    7.8952704209
     H    -6.1292488319   -2.9755220493    4.5588094780
     H    -6.0752427122   -3.8565942345    2.2484563494
     H    -4.0335168001   -3.5865098873    0.8522838757
     H    -2.0440886233   -2.4308299202    1.8035101472
     H    -2.1116358994   -1.5296132086    4.1062263265
     H    -7.5295575667    3.7773087640    2.2341011769
     H    -7.5976534448    4.6773701776    4.5372329862
     H    -5.6087732134    5.8333750922    5.4892334838
     H    -3.5670699211    6.1049404600    4.0933727883
     H    -3.5124073930    5.2250220787    1.7825566242
