64
-1.5702964011565259e+03 frame 30   xyz file generated by TeraChem
     C     1.5668888974   -0.8916952751   -0.3072619240
     C     0.9414186630   -0.7985427036   -1.7022490919
     C     1.7279564092   -2.3102489572    0.1937356207
     C     0.7746292950   -3.2776667774    0.3441235962
     C     1.1574795710   -4.5546358196    0.8383022263
     N     0.2244621193   -5.5118767715    0.9899577328
     C     0.6078288542   -6.6919840018    1.4559009625
     C    -0.3911365784   -7.7419652052    1.6277673067
     C    -1.7323768373   -7.4926737679    1.2928446955
     C    -2.6966823786   -8.4706401087    1.4496846228
     C    -2.3296989095   -9.7252851126    1.9487453167
     C    -1.0110844814   -9.9851300605    2.2821684319
     C    -0.0100857127   -9.0076151140    2.1318343336
     C     1.3923642464   -9.2689359465    2.4790249822
     C     2.3652783852   -8.2568945307    2.3076005699
     C     1.9763088314   -6.9474152381    1.7916469980
     N     2.9052729229   -6.0149944705    1.6458888641
     C     2.5292470244   -4.8106673854    1.1716294263
     C     3.5001204524   -3.7924314506    1.0026261122
     C     3.0998072425   -2.5695329756    0.5207021097
     C     3.8627828627   -1.3545609225    0.2458597573
     C     2.9848387482   -0.3697155676   -0.2367141607
     C     3.4591163763    0.8887605688   -0.5741358611
     C     4.8239079115    1.1834992687   -0.4288644840
     C     5.6917696819    0.1848346930    0.0500078412
     C     5.2233523553   -1.0794244594    0.3880474766
     C     5.3312528215    2.5166512190   -0.8381500031
     C     5.0179732995    2.9846510460   -2.1012978725
     C     5.4864926584    4.2302952637   -2.5682454745
     C     6.2758342863    5.0146259330   -1.7646502434
     C     6.6086680788    4.5923154590   -0.4530515990
     C     6.1276443751    3.3337491131    0.0309991198
     C     6.4306970284    2.9741683826    1.3711571599
     C     7.1943255005    3.7903359141    2.1723302381
     C     7.6943335806    5.0162027479    1.6797073995
     C     7.3999177820    5.4078594740    0.3966018089
     C     3.7077740378   -8.5073322094    2.6355446128
     C     4.0997510259   -9.7375699019    3.1296051421
     C     3.1443655943  -10.7446125070    3.3052570122
     C     1.8175946867  -10.5114207513    2.9848524145
     H     0.9311938373   -0.3289077856    0.3922641609
     H     1.5391867239   -1.3532551601   -2.4330281843
     H     0.8801008875    0.2457408055   -2.0255051678
     H    -0.0725690814   -1.2114574281   -1.6984989521
     H    -0.2715027882   -3.1098393844    0.1008853620
     H    -1.9933759313   -6.5123985915    0.9081607428
     H    -3.7307625911   -8.2654140878    1.1871351017
     H    -3.0782041751  -10.5024767287    2.0769550099
     H    -0.7615883942  -10.9682694460    2.6656804493
     H     4.5332517700   -4.0101807150    1.2599417750
     H     2.7817694753    1.6579326196   -0.9382626722
     H     6.7528116633    0.4018240597    0.1379190633
     H     5.9127677089   -1.8389339980    0.7482169434
     H     4.4171740195    2.3623591786   -2.7596658299
     H     5.2276099051    4.5556997207   -3.5721802173
     H     6.6529858776    5.9720073338   -2.1167205602
     H     6.0395867316    2.0443530449    1.7713177767
     H     7.4090985191    3.4936882751    3.1955975176
     H     8.2998038438    5.6507573793    2.3213671115
     H     7.7640028287    6.3571680312    0.0098746322
     H     4.4294486723   -7.7100481931    2.4914431674
     H     5.1412747601   -9.9192690040    3.3797331105
     H     3.4391581303  -11.7156060353    3.6939219173
     H     1.1041734140  -11.3144404038    3.1335122712
