42
-1.4458041552376412e+03 frame 32   xyz file generated by TeraChem
     C     2.2611304537    0.4741673277   -0.7101269472
     C     2.9179700836   -0.6797341813    0.0142479086
     O     3.4092617519   -0.2755407238    1.3085145140
     C     4.6341446808    0.2947564782    1.3461036962
     O     5.2879328494    0.5048993543    0.3415892428
     C     5.0626947277    0.5937818761    2.7157795004
     C     4.5026154413   -0.0065731440    3.8652793091
     N     3.4524315693   -0.8200380380    3.9359511467
     S     5.3799173187    0.3831651715    5.3191199408
     C     6.4948696575    1.3938009622    4.3850176083
     C     6.1961419291    1.4033394111    3.0314009296
     C     6.9515168119    2.2487165004    2.0850195367
     C     8.3463074327    2.1616033073    2.0020756359
     C     9.0545442873    2.9910164771    1.1355868736
     C     8.3795598999    3.9237074654    0.3512346101
     C     6.9901809317    4.0209832894    0.4337821675
     C     6.2801249970    3.1864548835    1.2894728465
     N     7.4601256142    2.1160588639    4.9908236089
     N     7.5461008253    1.9488666008    6.2475270787
     C     8.5440376673    2.7083282822    6.8803317668
     C     9.4094415532    3.5994175589    6.2242280383
     C    10.3594231193    4.3009307140    6.9534894297
     C    10.4629962645    4.1288549366    8.3370272001
     C     9.6063082421    3.2445086352    8.9905704902
     C     8.6518949269    2.5373217831    8.2666834061
     H     1.8278538658    0.1158457067   -1.6499963048
     H     2.9912246955    1.2547140439   -0.9417671277
     H     1.4587380339    0.9072225989   -0.1044318418
     H     3.7487025760   -1.0961829002   -0.5603946012
     H     2.2013552214   -1.4730826321    0.2365655599
     H     2.9278685944   -1.0146561746    3.0929807889
     H     3.1416787556   -1.2119921526    4.8129779227
     H     8.8729534538    1.4328313402    2.6109298091
     H    10.1363749028    2.9064470928    1.0748752223
     H     8.9328027363    4.5731474577   -0.3220487135
     H     6.4571438268    4.7501861781   -0.1706631854
     H     5.1986019624    3.2676842716    1.3540246719
     H     9.3240366600    3.7290239565    5.1500686107
     H    11.0269587175    4.9895977274    6.4418296972
     H    11.2090518485    4.6832156139    8.8999670499
     H     9.6812179532    3.1050693239   10.0656793021
     H     7.9749911336    1.8435248135    8.7580448113
