42
-1.0990749672890297e+03 frame 50   xyz file generated by TeraChem
     C    -0.9929723811   -2.4830636252    1.9015117353
     N    -0.9387445402   -1.4327555491    0.8996750543
     C    -1.9064573684   -1.0208144085    0.0152583860
     N    -1.4944149834   -0.0672815045   -0.8025969543
     C    -0.1942258830    0.1751708867   -0.4409728528
     C     0.1745313183   -0.6696365520    0.6295645226
     C     1.4476737635   -0.6340679694    1.2037082647
     C     2.3464169938    0.2779821176    0.6693431413
     C     1.9940978796    1.1284804670   -0.3992334363
     C     0.7299499847    1.0901644846   -0.9647839398
     C    -3.2699493925   -1.5458820001   -0.0422980929
     C    -4.0638218445   -1.2858734946   -1.1700628300
     N    -5.3126372880   -1.7186383548   -1.2686903298
     C    -5.8012702130   -2.4210997177   -0.2366678721
     C    -5.0073732994   -2.6811727943    0.8910685030
     N    -3.7585725286   -2.2483582031    0.9897317429
     C    -7.1648297113   -2.9459652189   -0.2942219322
     N    -7.5773570280   -3.8987565599    0.5242405836
     C    -8.8775139994   -4.1411166022    0.1624611415
     C    -9.2457302677   -3.2970614560   -0.9088650935
     N    -8.1321481921   -2.5344869826   -1.1792887520
     C    -8.0772176731   -1.4850259300   -2.1819844134
     C   -10.5187068896   -3.3328152164   -1.4833794815
     C   -11.4178264768   -4.2441882580   -0.9485108860
     C   -11.0660624870   -5.0938757996    0.1208922506
     C    -9.8020786186   -5.0554338152    0.6867817895
     H    -1.5394022182   -3.3417529353    1.5138914343
     H    -1.4834766518   -2.1309933910    2.8123258640
     H     0.0296976484   -2.7849998018    2.1333440824
     H     1.7273146229   -1.2793538155    2.0311383335
     H     3.3471796090    0.3410541554    1.0878674510
     H     2.7328849733    1.8270417528   -0.7824680959
     H     0.4536816807    1.7436936386   -1.7875409402
     H    -3.6608030387   -0.7200347741   -2.0050263810
     H    -5.4103741043   -3.2470728441    1.7259985934
     H    -9.0998214020   -1.1850202455   -2.4165521703
     H    -7.5839126586   -1.8371254603   -3.0912455126
     H    -7.5331882274   -0.6250161552   -1.7938541298
     H   -10.7979619979   -2.6882125119   -2.3114693202
     H   -12.4184711559   -4.3073748699   -1.3672980024
     H   -11.8051523516   -5.7919220517    0.5044783154
     H    -9.5262114140   -5.7083659427    1.5101458210
