33
-2.1269732684758324e+03 frame 30   xyz file generated by TeraChem
     F     2.0654277849   -0.3976566327   -1.0736016032
     C     0.7433595573   -0.2523845798   -0.9008668406
     C    -0.0305012028    0.1697454938   -1.9725711783
     C    -1.3984736438    0.3160385139   -1.7862580314
     C    -1.9861638193    0.0441764704   -0.5426559026
     C    -1.1709752634   -0.3815466170    0.5192880020
     C     0.1961476785   -0.5319862372    0.3449645630
     C    -3.4213548553    0.1944864501   -0.3224838843
     N    -3.9845468581    0.0081898199    0.8510686216
     N    -5.3152048793    0.1937220416    0.8501510378
     C    -5.7824662994    0.5237474815   -0.3292655013
     S    -4.5523206103    0.6315893706   -1.5716816995
     N    -7.1193775730    0.7533347125   -0.5225110352
     N    -7.3969823460    1.0519768004   -1.7300339309
     C    -8.7069266838    1.2946705810   -1.9916461392
     C    -9.8405087863    1.2897896388   -1.1854743504
     C   -11.0001046840    1.6047406832   -1.8938939330
     C   -10.7786342295    1.8552726922   -3.2482777046
     S    -9.1034566637    1.6965708895   -3.6417482952
     C   -11.7495465975    2.2032731249   -4.2510256316
     C   -11.5504466938    2.4441588959   -5.5963375883
     C   -12.7424270857    2.7616837835   -6.2887852533
     C   -13.8415314151    2.7616554970   -5.4710605923
     S   -13.4362537428    2.3752862035   -3.8485127429
     H     0.4357703818    0.3778937277   -2.9300142830
     H    -2.0062246109    0.6476771464   -2.6241886144
     H    -1.6217162753   -0.5943111425    1.4828541071
     H     0.8376231650   -0.8616052314    1.1559086845
     H    -9.8035081872    1.0640814687   -0.1260850400
     H   -11.9856781721    1.6521533349   -1.4419863138
     H   -10.5748905178    2.3927197276   -6.0700934216
     H   -12.7873297880    2.9808821872   -7.3498510773
     H   -14.8727241866    2.9672433638   -5.7300848398
