41
-1.9216861077348271e+03 frame 30   xyz file generated by TeraChem
     F     1.4941518981    0.2082078489   -1.9393402942
     C     0.2333762812    0.2404467852   -1.4758562071
     C    -0.0188801101    0.8873054899   -0.2746256443
     C    -1.3270383812    0.9332232166    0.1946842403
     C    -2.3481272535    0.3253275363   -0.5341398175
     C    -2.0729518368   -0.3248592407   -1.7363892930
     C    -0.7689638537   -0.3666558404   -2.2189897923
     N    -3.6880385082    0.3821030271   -0.0493549774
     C    -4.6899295517    1.1586761830   -0.6211240211
     N    -4.4044698905    1.8318721466   -1.7689648138
     N    -5.3507006425    2.5403977970   -2.2302462189
     C    -5.0359304322    3.2206668995   -3.4183847274
     C    -6.0571629682    4.0547910352   -3.9214064418
     C    -5.8845745910    4.7838018916   -5.0828146579
     C    -4.6681246171    4.6830759076   -5.7700772900
     C    -3.6499125275    3.8405069567   -5.2598002133
     C    -3.8144227093    3.1077458354   -4.0935127964
     S    -2.2700011727    3.9165849221   -6.3209823763
     C    -3.1572460279    5.0394347528   -7.3220845871
     N    -4.3533652920    5.3470703116   -6.9400782068
     C    -5.8220113645    1.0683210808    0.1900181635
     C    -5.4987483732    0.2331054384    1.2571168972
     C    -4.1716035055   -0.1880659322    1.0987921392
     C    -3.4212503448   -1.0895404386    1.9463201120
     C    -2.3986406572   -1.9633934392    1.6456762759
     C    -1.9624828163   -2.7182069152    2.7659469550
     C    -2.6501805158   -2.4181424386    3.9090936353
     S    -3.8340112707   -1.2016624373    3.6349961262
     H     0.7950538408    1.3525067471    0.2720999042
     H    -1.5563039786    1.4434464895    1.1253662846
     H    -2.8778100554   -0.7960523142   -2.2918475188
     H    -0.5271079284   -0.8623200557   -3.1535818728
     H    -6.9881003787    4.1088296098   -3.3647665431
     H    -6.6696676227    5.4270452356   -5.4687135094
     H    -3.0363684241    2.4615153596   -3.7016708735
     H    -2.6888841796    5.4387705816   -8.2163005613
     H    -6.7657965935    1.5567897608   -0.0082014172
     H    -6.1541833371   -0.0826378310    2.0587874407
     H    -1.9887278296   -2.0781153933    0.6490251649
     H    -1.1737547681   -3.4617548367    2.7218172939
     H    -2.5289289742   -2.8379456474    4.8997500839
