38
-9.9233373118436725e+02 frame 44   xyz file generated by TeraChem
     O     1.2158806789    0.1972995618   -1.4801380823
     C     0.5451128176    0.0529162666   -0.3078035563
     C    -0.1066477457   -1.1386267716    0.0135593191
     C    -0.7840265062   -1.2644806409    1.2198343191
     C    -0.8167144083   -0.1979992709    2.1197053399
     C    -0.1681505691    0.9850606488    1.7988740823
     C     0.5231241302    1.1404585621    0.5877259145
     C     1.1826533723    2.4165697216    0.3172074803
     N     1.8371693537    2.7088450938   -0.8480734871
     C     2.3166851636    3.9862799205   -0.7441125313
     C     1.9147878156    4.4184707903    0.5277723894
     N     1.2126898128    3.4307927443    1.1699680612
     C     2.2486412440    5.7186987909    0.9850296693
     C     1.8553445267    6.1800709994    2.2760392123
     C     2.1886009267    7.4298689519    2.6971875085
     C     2.9386700028    8.3144346784    1.8603145756
     C     3.3471411475    7.8883667364    0.5631453890
     C     2.9946066033    6.5540638643    0.1107714380
     C     3.3750763786    6.0656245418   -1.1725073010
     C     3.0522183200    4.8013352899   -1.6158934946
     C     4.0850568847    8.7995038739   -0.2270391220
     C     4.4040883472   10.0600544513    0.2355778139
     C     3.9990813650   10.4739448068    1.5171056631
     C     3.2778577603    9.6098254150    2.3117371599
     H     1.1429653538   -0.6151327724   -2.0053263365
     H    -0.0742995424   -1.9643301652   -0.6940914782
     H    -1.2867477205   -2.1986313258    1.4548528569
     H    -1.3450288398   -0.2901775133    3.0639045356
     H    -0.1815342446    1.8270678273    2.4840467522
     H     1.9293139239    2.0694675836   -1.6269854668
     H     1.2860152133    5.5080860099    2.9119840915
     H     1.8888362866    7.7808135860    3.6820591242
     H     3.9433690488    6.7050232952   -1.8387792722
     H     3.3569968746    4.4553852751   -2.5990484779
     H     4.4141622543    8.5155827439   -1.2212291884
     H     4.9723409223   10.7362050726   -0.3977829385
     H     4.2537814005   11.4677111106    1.8753668278
     H     2.9552551721    9.9119314690    3.3057577183
