26
-1.1534752440477271e+03 frame 21   xyz file generated by TeraChem
     O    -1.5134630505    2.0238288015    0.0105386306
     C    -1.2604958637    0.7106125583   -0.0132762086
     C    -2.2617544775   -0.2498755834   -0.0788538232
     C    -1.9460955014   -1.6066499184   -0.1015388918
     C    -0.6253476360   -2.0416402078   -0.0602862066
     C     0.4273977583   -1.0729150136    0.0062303381
     C     0.1143704306    0.3138236411    0.0311613545
     N     1.0576877860    1.2873424592    0.0950105931
     C     2.3189502209    0.9151320664    0.1355313602
     C     2.7430454099   -0.4315711439    0.1156681107
     C     1.7972730700   -1.4234787183    0.0508806495
     N    -0.2292871792   -3.3724975241   -0.0796903364
     N    -1.1659357868   -4.2216940385   -0.1255205799
     C    -0.7346496688   -5.5392794593   -0.1469504987
     N     0.4836200142   -6.0201712643   -0.1378863561
     C     0.4516172327   -7.3810649706   -0.1681744378
     C    -0.7905351215   -7.9602712905   -0.2009040169
     S    -1.9944217545   -6.7429463730   -0.1943889761
     H    -2.4734226595    2.1705028513   -0.0227369904
     H    -3.3013255743    0.0681839690   -0.1127171493
     H    -2.7403320214   -2.3442326600   -0.1532992738
     H     3.0590403622    1.7126580404    0.1871536513
     H     3.8025639715   -0.6655981603    0.1514444241
     H     2.0740963630   -2.4719687327    0.0333622294
     H     1.3836249095   -7.9365160013   -0.1654758298
     H    -1.0435702073   -9.0120194561   -0.2279616876
