32
-1.3069512776577055e+03 frame 20   xyz file generated by TeraChem
     O    -1.6183037655    1.9624801025    0.0629499409
     C    -1.3225193021    0.6651524698   -0.0490348878
     C    -2.2851885465   -0.3120983407   -0.2776042363
     C    -1.9251946486   -1.6514991313   -0.3892549406
     C    -0.5962979638   -2.0542745572   -0.2763148127
     C     0.4159836135   -1.0679919597   -0.0386584907
     C     0.0574076007    0.3017826007    0.0770531110
     N     0.9589511863    1.2900979245    0.3017602944
     C     2.2244478380    0.9484537205    0.4166595149
     C     2.6922168509   -0.3802609913    0.3189817447
     C     1.7878143516   -1.3868384300    0.0911381173
     N    -0.1555027855   -3.3611905818   -0.3795428462
     N    -1.0504555346   -4.2346971351   -0.5810893349
     C    -0.5489091562   -5.5257627625   -0.6885095797
     N     0.6847851443   -5.9320479234   -0.6617134780
     C     0.7396703823   -7.2970047416   -0.8069274479
     C    -0.5103419332   -7.9504260724   -0.9517869015
     S    -1.7777961633   -6.7660629458   -0.9003820758
     C    -0.5982999846   -9.3341301618   -1.1059996506
     C     0.5832843715  -10.0630707643   -1.1143921557
     C     1.8302922592   -9.4298057060   -0.9724867415
     C     1.9194528214   -8.0566161772   -0.8194045782
     H    -2.5762221218    2.0900218810   -0.0410401282
     H    -3.3282776195   -0.0189668656   -0.3709556615
     H    -2.6878802277   -2.4021900208   -0.5690550677
     H     2.9313715686    1.7570870984    0.5972698124
     H     3.7522188326   -0.5897320111    0.4242091048
     H     2.0987869662   -2.4225129329    0.0078702765
     H    -1.5599308010   -9.8261908642   -1.2154115686
     H     0.5412699866  -11.1420639066   -1.2334015879
     H     2.7365047126  -10.0287279861   -0.9828592509
     H     2.8776632903   -7.5576082976   -0.7087561379
