30
-8.1674227863278543e+02 frame 35   xyz file generated by TeraChem
     O    -1.5920600527    2.0044289368    0.1980838303
     C    -1.3194059735    0.6938904692    0.1063669708
     C    -2.2959975059   -0.2686664574   -0.0978027221
     C    -1.9589745424   -1.6208431421   -0.1894569360
     C    -0.6426513082   -2.0453196275   -0.0800785876
     C     0.3855310594   -1.0748438886    0.1333557344
     C     0.0520643235    0.3059374571    0.2286797863
     N     0.9759228396    1.2800918984    0.4308146118
     C     2.2354948009    0.9170930869    0.5424262300
     C     2.6789192373   -0.4211964215    0.4637873035
     C     1.7541776692   -1.4137294235    0.2593450631
     N    -0.2277081939   -3.3789882945   -0.1645428483
     N    -1.1426931800   -4.2223394176   -0.3503264509
     C    -0.7065320321   -5.5610920036   -0.4364683816
     C     0.6308804634   -5.9776941063   -0.3476375093
     C     0.9381148446   -7.3270239133   -0.4481341034
     C    -0.0747024167   -8.2724894617   -0.6377205627
     C    -1.4029999685   -7.8610957137   -0.7271429947
     C    -1.7179374695   -6.5093149694   -0.6275495827
     H    -2.5485974931    2.1409575945    0.0996480017
     H    -3.3355384131    0.0384195933   -0.1887905153
     H    -2.7364036669   -2.3606550642   -0.3504151904
     H     2.9583322975    1.7157916687    0.7047150859
     H     3.7357842522   -0.6482516943    0.5648799119
     H     2.0475022154   -2.4556731833    0.1920996567
     H     1.4106178313   -5.2372105997   -0.2018367783
     H     1.9738712126   -7.6492485571   -0.3793266436
     H     0.1753963523   -9.3271321314   -0.7157155601
     H    -2.1932832060   -8.5919100981   -0.8749750785
     H    -2.7462139287   -6.1645056465   -0.6950418028
