61
-2.0894998949959349e+03 frame 54   xyz file generated by TeraChem
     O     4.2114140535   -0.3338711924    0.2232349846
     S     3.4684662150    0.3771820833   -1.0208813565
     O     2.5025719813    1.3417948262   -0.5153461937
     O     4.4796281857    0.8467614075   -1.9621582293
     C     2.6064396143   -1.0373068693   -1.6537263499
     C     1.2264977643   -0.9445338935   -1.6624304969
     C     0.4564433257   -1.9986955144   -2.1709612140
     C     1.0793583970   -3.1303720312   -2.6536988298
     C     2.4809959938   -3.2327771446   -2.6472488084
     C     3.2972011031   -2.1748504021   -2.1515713771
     C     4.7361326152   -2.2957326091   -2.1625107185
     C     5.3785911152   -3.4065510637   -2.6212614863
     C     4.5818751993   -4.4766857142   -3.1077344586
     C     3.1733547244   -4.3901699752   -3.1260712169
     N     2.6849390829   -5.5281733620   -3.6312648518
     N     3.7760910436   -6.2355871221   -3.8910037189
     N     4.9390912139   -5.6682561270   -3.6037267929
     C     3.7048517632   -7.5381302872   -4.4416473621
     C     2.4722750971   -8.0555566939   -4.8429197863
     C     2.4154617016   -9.3315995380   -5.3781839943
     C     3.5739900790  -10.1103609782   -5.5220125870
     C     4.7994432401   -9.5682943395   -5.1092561556
     C     4.8704371854   -8.2914583247   -4.5734653840
     C     3.4606139665  -11.4504320752   -6.0874272068
     N     2.3233749331  -12.0374606288   -6.4240186832
     C     2.6503237711  -13.2775197240   -6.9037026108
     C     4.0332456793  -13.4479441356   -6.8680840118
     N     4.5103182402  -12.2787108952   -6.3329898553
     C     4.9467368699  -14.5158112084   -7.2829322571
     C     4.7331661035  -15.2294255978   -8.4717355829
     C     5.6203146075  -16.2253711715   -8.8651432877
     C     6.7407715342  -16.5186313515   -8.0875896785
     C     6.9676154459  -15.8081716708   -6.9105258699
     C     6.0776150749  -14.8166780252   -6.5085450364
     C     1.5918961005  -14.2085602655   -7.3201956369
     C     0.4009897614  -13.6999352443   -7.8582460987
     C    -0.6297688993  -14.5538643241   -8.2381521282
     C    -0.4916103406  -15.9328893823   -8.0855587139
     C     0.6839215619  -16.4487353962   -7.5413544957
     C     1.7141793184  -15.5957494988   -7.1567988358
     H     4.9758276408    0.2125753150    0.4978558095
     H     0.7474089111   -0.0546634892   -1.2687089944
     H    -0.6260036917   -1.9198933889   -2.1758990419
     H     0.4955940815   -3.9588615207   -3.0442170380
     H     5.3308885106   -1.4691010026   -1.7946800547
     H     6.4616946198   -3.4740324904   -2.6178327776
     H     1.5728204602   -7.4600222992   -4.7365767353
     H     1.4624662833   -9.7425411753   -5.6950988422
     H     5.7196614580  -10.1388534866   -5.1916944908
     H     5.8206400651   -7.8802758954   -4.2534345137
     H     5.4924969394  -12.0603535403   -6.2300630228
     H     3.8738156636  -14.9917551387   -9.0918418115
     H     5.4419736963  -16.7677694938   -9.7898778858
     H     7.4337841912  -17.2954189031   -8.3992233777
     H     7.8364346643  -16.0304214639   -6.2966996535
     H     6.2502303317  -14.2818076116   -5.5777408327
     H     0.2941906187  -12.6255201881   -7.9778172460
     H    -1.5433968368  -14.1405230935   -8.6579882021
     H    -1.2958752701  -16.6003896571   -8.3836088118
     H     0.7962385235  -17.5212097084   -7.4040347977
     H     2.6161814103  -16.0077877764   -6.7137423595
