61
-2.0895042662520300e+03 frame 117   xyz file generated by TeraChem
     O     7.7685578663   -0.1899673097    1.1908491522
     S     6.6769041359   -0.6671243574    2.2831565396
     O     5.5896119268   -1.3630711289    1.6083252263
     O     7.3720083903   -1.3463915866    3.3698369359
     C     6.1349933489    0.9284779829    2.8060805238
     C     6.9873331331    1.7082003530    3.6074372571
     C     6.5516037964    2.9466076946    4.0274711848
     C     5.2737704810    3.4106365791    3.6659085876
     C     4.4132012756    2.6126947907    2.8608845863
     C     4.8754477206    1.3531370384    2.4346913785
     C     3.0976488441    3.0720079714    2.4863724431
     C     2.6050500740    4.2801414663    2.8765188772
     C     3.4471155967    5.0945625117    3.6854466777
     C     4.7428482064    4.6759011162    4.0681761152
     N     5.2938207668    5.6341303858    4.8209154314
     N     4.3508185697    6.5628599686    4.8660101564
     N     3.2257445985    6.3060987496    4.2110836621
     C     4.5320414177    7.7685135386    5.5853421548
     C     5.7608469072    8.0328006522    6.1926658003
     C     5.9280625788    9.2120535675    6.8990491689
     C     4.8832546295   10.1415655936    7.0138650766
     C     3.6579837380    9.8520031278    6.3969739721
     C     3.4780412540    8.6760123591    5.6844151195
     C     5.1037956119   11.3674396969    7.7725707903
     N     6.1682181343   11.6199248330    8.5172435498
     C     5.9804773291   12.8651235259    9.0554141709
     C     4.7680112661   13.3928412371    8.6145699933
     N     4.2340600725   12.4112852006    7.8193638003
     C     4.0820456847   14.6740015299    8.8003026547
     C     4.7971486391   15.8809934205    8.7940669429
     C     4.1343848620   17.0942364389    8.9426973099
     C     2.7473725577   17.1260830780    9.0889404732
     C     2.0270852432   15.9332851576    9.0879638813
     C     2.6875223078   14.7160694963    8.9482422443
     C     6.9679432060   13.4270512134    9.9880270891
     C     8.3232932028   13.0986066109    9.8424433531
     C     9.2746449786   13.5965840041   10.7275634879
     C     8.8898125691   14.4307635585   11.7763745266
     C     7.5432071383   14.7551046545   11.9367906971
     C     6.5901722725   14.2546785663   11.0548708485
     H     8.2892060660   -0.9671783215    0.9010834036
     H     7.9680528683    1.3392951897    3.8900999953
     H     7.1903167841    3.5705111633    4.6451466503
     H     4.2410466479    0.7212739247    1.8204048171
     H     2.4944203490    2.4113241170    1.8696762384
     H     1.6138164635    4.6158745332    2.5896642257
     H     6.5726937118    7.3197761156    6.1065120196
     H     6.8808188867    9.4282229828    7.3712991515
     H     2.8191581668   10.5371869999    6.4765589205
     H     2.5262065630    8.4567000423    5.2147109521
     H     3.3845582518   12.5148413163    7.2799425234
     H     5.8747458910   15.8635847175    8.6592048784
     H     4.7025912552   18.0206011009    8.9327022105
     H     2.2317845773   18.0760748905    9.2007545467
     H     0.9466492447   15.9473225982    9.2044217574
     H     2.1189505160   13.7893886188    8.9695740219
     H     8.6233582828   12.4487590869    9.0252287591
     H    10.3213826413   13.3345163196   10.5954146256
     H     9.6328844494   14.8207455988   12.4670341517
     H     7.2299816731   15.3927550165   12.7595544465
     H     5.5415023763   14.4964951807   11.2008687534
