94
-4.7994810554985379e+03 frame 110   xyz file generated by TeraChem
     O     3.5677198689   -0.2959810398   -2.0938193005
     C     3.4308852637   -0.0084650807   -0.7165633733
     C     4.0376866879    1.3683046019   -0.5061410595
     S     3.8892068441    1.8167722055    1.2601278560
     C     4.6551297505    3.4080370012    1.2544163269
     C     4.0586360942    4.4982941177    0.6192639134
     F     2.9166751004    4.3321032062   -0.0493881432
     C     4.6394375068    5.7565953665    0.6478416577
     F     4.0266225917    6.7649861758    0.0233434530
     C     5.8349677284    5.9878789530    1.3248234040
     C     6.4270837812    4.9016874131    1.9627082104
     C     5.8546288677    3.6363114257    1.9291447377
     F     6.4791344569    2.6386237174    2.5538041090
     F     7.5742048041    5.0714473066    2.6242623499
     C     6.4534311489    7.3418034524    1.3561487973
     C     5.8852417634    8.3033467846    2.2082199056
     C     4.7600069431    8.0158799004    3.0837332010
     C     4.4895357408    9.1684371928    3.7360136020
     C     5.4528680553   10.1438322802    3.2482447529
     N     6.2937826728    9.5948149259    2.3317015492
     C     5.4845563414   11.4793423202    3.6900945874
     C     6.4330944758   12.4379467816    3.3164332189
     C     6.4813779881   13.8090205536    3.7235134491
     C     7.5780212147   14.3804744752    3.1447036802
     C     8.2301283552   13.3810886065    2.3547067825
     C     9.3706746676   13.5539872363    1.5639445268
     C     9.9444843867   12.5905099928    0.7165005801
     N     9.4817577062   11.3261731325    0.5294821872
     C    10.3182210886   10.7783935846   -0.3929283560
     C    10.2246996746    9.4740928785   -0.9055780923
     C     9.2801394342    8.5135680295   -0.5314337069
     N     8.2758431696    8.6856877662    0.3794038617
     C     7.5521264078    7.5341410268    0.5132191735
     C     8.1347793252    6.5710163822   -0.3703318384
     C     9.1865623941    7.1669822293   -1.0062428140
     C    11.1988386606    9.0584172630   -1.9521690938
     C    12.5030890824    8.6835441055   -1.6398117227
     F    12.9227034257    8.6950206766   -0.3736160612
     C    13.4056310269    8.2860814406   -2.6170397458
     F    14.6432912739    7.9265299854   -2.2821225262
     C    13.0092671945    8.2528362772   -3.9472384771
     C    11.7152393415    8.6210031073   -4.2910864572
     C    10.8318339462    9.0178572322   -3.2961290293
     F     9.5977364812    9.3712948756   -3.6577783103
     F    11.3265343474    8.5966073409   -5.5641389623
     F    13.8685776614    7.8650669962   -4.8831950561
     C    11.3475016662   11.7205934135   -0.8033467517
     C    11.1197162987   12.8528008397   -0.1004604981
     C    10.0134794284   14.8936784130    1.6301750381
     C    10.7531520158   15.2903507551    2.7423742515
     F    10.8971127246   14.4626447911    3.7797316165
     C    11.3459915365   16.5422837144    2.8190247999
     F    12.0281053729   16.8421006417    3.9271655533
     C    11.2567469110   17.4581397505    1.7693389751
     C    10.5172519684   17.0610876787    0.6545975361
     C     9.9069954073   15.8151631668    0.5929617007
     F     9.2080227078   15.5146312525   -0.5049743827
     F    10.3755294057   17.8781774712   -0.3883127614
     S    11.9654911904   19.0742454953    1.8352794938
     C    13.7467162242   18.6974722279    2.0539152503
     C    14.4749365247   19.9619936376    2.4891051029
     O    14.1447341731   20.3694084004    3.7993712957
     N     7.5042698552   12.2308727675    2.4922059284
     C     4.4200810354   11.9299775789    4.6251594420
     C     3.0882775613   12.0189187124    4.2168274256
     F     2.7518261092   11.6915189779    2.9689448563
     C     2.0770309497   12.4304060746    5.0742165517
     F     0.8166333124   12.4865617007    4.6488797996
     C     2.3887304199   12.7794100204    6.3816939697
     C     3.7047369006   12.7090462022    6.8170798966
     C     4.6973707640   12.2847711905    5.9444511271
     F     5.9467266588   12.2335164993    6.4112754966
     F     4.0115068101   13.0444299311    8.0682313171
     F     1.4370172693   13.1797865464    7.2169165355
     H     3.1882945815   -1.1736925042   -2.2441013893
     H     3.9565428859   -0.7494690388   -0.0962006323
     H     2.3742085179   -0.0026784535   -0.4098116734
     H     3.5082281798    2.1041885110   -1.1165279893
     H     5.0952602878    1.3591453225   -0.7833414687
     H     4.2635940657    7.0601406935    3.1903408293
     H     3.7293565199    9.3425701552    4.4861060075
     H     5.7567186606   14.2910551016    4.3649423330
     H     7.9026215063   15.4082678593    3.2326587691
     H     8.0896458313    9.5527931503    0.8730484149
     H     7.7830230097    5.5563833600   -0.4971050714
     H     9.8509427366    6.7193273237   -1.7325835098
     H    12.1300083713   11.5359928417   -1.5278307226
     H    11.6880917372   13.7732531034   -0.1255171946
     H    14.1497227808   18.3287748377    1.1064535482
     H    13.8546461739   17.9319629617    2.8248430392
     H    14.3117768212   20.7698428666    1.7604324369
     H    15.5466351299   19.7379834166    2.4945610739
     H    13.2451415009   20.7268029723    3.7820001137
     H     7.7158911187   11.3498673694    2.0349084921
