76
-1.7813537615675009e+03 frame 89   xyz file generated by TeraChem
     C   -11.4285242065   -0.9859375878   -1.3333681453
     C   -10.7191056572    0.2079327137   -1.2059426846
     C    -9.4753919681    0.3505772775   -1.8117588447
     C    -8.9142718781   -0.6996471366   -2.5508199127
     C    -9.6372404132   -1.8935481267   -2.6760028657
     C   -10.8838942195   -2.0342954107   -2.0727714820
     C    -7.5831737432   -0.5305970941   -3.1837878318
     C    -6.7602997905   -1.6287009877   -3.4703040598
     C    -5.5245765916   -1.4021048595   -4.0627503376
     C    -5.1334888845   -0.1002623466   -4.3473390426
     C    -6.0067016586    0.9399935913   -4.0166437657
     N    -7.1995914370    0.7241711875   -3.4515167833
     C    -5.6368938349    2.3553176272   -4.2894190075
     N    -4.4317458261    2.5675673048   -4.8398955043
     C    -4.0811957234    3.8307737243   -5.0806379789
     C    -4.8841755417    4.9290574897   -4.7970671192
     C    -6.1442271756    4.7188990867   -4.2223393113
     C    -6.5130767847    3.3934693598   -3.9706295512
     C    -7.0411369631    5.8437264580   -3.8927747367
     C    -8.4364290407    5.7035523308   -3.9659451600
     C    -9.2817160837    6.7572644411   -3.6577911687
     C    -8.7703957656    8.0050175256   -3.2557910353
     C    -7.3734081166    8.1365115229   -3.1762723083
     C    -6.5262444678    7.0839424929   -3.4921625653
     C    -9.6039557255    9.1546701232   -2.9191971891
     C   -10.9466688712    9.2300975277   -3.0299976069
     C   -11.7895527412   10.3722200055   -2.6993446678
     C   -11.3002740567   11.5893854343   -2.1902788592
     C   -12.1483455348   12.6440101830   -1.9001042299
     C   -13.5357333953   12.5276080105   -2.0947760966
     C   -14.0376122217   11.3181669259   -2.5957808101
     C   -13.1774824133   10.2722472562   -2.8946399510
     N   -14.3936142748   13.6003372163   -1.7973404927
     C   -15.5421858817   13.8387398472   -2.5902888301
     C   -16.7641671306   14.1592652344   -1.9862327363
     C   -17.8872813692   14.4084625744   -2.7687221463
     C   -17.8151476130   14.3250282463   -4.1585802445
     C   -16.6005459927   13.9980906807   -4.7606525971
     C   -15.4681192472   13.7653816334   -3.9870077500
     C   -14.1266691258   14.4432515120   -0.6915143858
     C   -14.2748415450   15.8307733152   -0.8103807913
     C   -14.0238073311   16.6573603961    0.2801281203
     C   -13.6065034543   16.1179300695    1.4963546820
     C   -13.4517740172   14.7371781175    1.6135768712
     C   -13.7177077821   13.9015131640    0.5334387566
     H   -12.4012206360   -1.0972081330   -0.8614975956
     H   -11.1348402625    1.0303166749   -0.6294192141
     H    -8.9195083582    1.2779925600   -1.7122611299
     H    -9.2385483824   -2.7133388047   -3.2672469909
     H   -11.4338155782   -2.9646276806   -2.1878673254
     H    -7.0698904265   -2.6367108589   -3.2154205565
     H    -4.8669951604   -2.2361779439   -4.2924001542
     H    -4.1783972134    0.1240321268   -4.8076030956
     H    -3.1017391671    3.9790440026   -5.5328114043
     H    -4.5377251298    5.9281268165   -5.0426666082
     H    -7.4638022604    3.1525495446   -3.5084084369
     H    -8.8657807566    4.7592017753   -4.2901325085
     H   -10.3546954141    6.6049745307   -3.7319339599
     H    -6.9496454645    9.0860165656   -2.8568270091
     H    -5.4519264547    7.2203465718   -3.4007411412
     H    -9.0506757703   10.0197867331   -2.5549391202
     H   -11.4932124898    8.3665920231   -3.4088114754
     H   -10.2343047940   11.7244186253   -2.0293211133
     H   -11.7380242297   13.5757308769   -1.5223322497
     H   -15.1061547728   11.1999917498   -2.7478030650
     H   -13.5913870090    9.3420048196   -3.2781749389
     H   -16.8279498047   14.2106808302   -0.9031127680
     H   -18.8288107245   14.6559942084   -2.2851831969
     H   -18.6957492904   14.5134925917   -4.7663436725
     H   -16.5271699737   13.9379375271   -5.8435054621
     H   -14.5198908579   13.5281804313   -4.4608641791
     H   -14.5867152386   16.2553415851   -1.7603424316
     H   -14.1430073935   17.7323809211    0.1722357384
     H   -13.4047535311   16.7667445332    2.3441206181
     H   -13.1357992736   14.3017622838    2.5581043197
     H   -13.6112225600   12.8251772868    0.6337517210
