94
-4.7994814356993593e+03 frame 83   xyz file generated by TeraChem
     O     2.1815490603    0.7610037363    0.1813350229
     C     3.5157820104    0.2960967217    0.2261431103
     C     4.0012759515    0.2371756198   -1.2121968278
     S     5.7400933343   -0.3221103478   -1.2034938855
     C     6.0699243783   -0.4628263160   -2.9326527986
     C     5.9327522639    0.5998294076   -3.8269929287
     F     5.5157954773    1.7956476597   -3.4027599429
     C     6.2159315033    0.4545165429   -5.1777552268
     F     6.0407644196    1.5136622285   -5.9713250762
     C     6.6829785444   -0.7474927926   -5.7062205844
     C     6.8404690434   -1.8002595139   -4.8082438815
     C     6.5421676368   -1.6653074580   -3.4592762938
     F     6.7216609496   -2.7254524803   -2.6716629062
     F     7.2713184611   -2.9896267593   -5.2373407885
     C     6.9972644060   -0.9025958437   -7.1517727862
     C     8.1262141469   -0.2328773413   -7.6551957641
     C     9.0092417828    0.5677938761   -6.8212275737
     C     9.9660319355    1.0508735636   -7.6445291776
     C     9.6564812311    0.5349770122   -8.9692925221
     N     8.5411212300   -0.2426887818   -8.9504026745
     C    10.4485123799    0.8080156305  -10.0987884473
     C    10.2537275984    0.2856854088  -11.3811723417
     C    11.0508895794    0.5309043249  -12.5441536687
     C    10.5316613394   -0.2047023543  -13.5713844730
     C     9.3919262751   -0.9119526597  -13.0729691454
     C     8.5605749234   -1.7753428753  -13.7915301676
     C     7.4223306005   -2.4314270559  -13.2943253818
     N     6.9479856582   -2.3393996145  -12.0235442555
     C     5.8277354283   -3.1095681634  -12.0098507536
     C     4.9972912314   -3.3246855210  -10.8971060912
     C     5.2022670025   -2.8161780047   -9.6113044130
     N     6.2436746216   -2.0242748123   -9.2148294182
     C     6.1252216909   -1.7097794402   -7.8901525995
     C     4.9348657703   -2.3471444013   -7.4161275954
     C     4.3711010351   -3.0171205617   -8.4642510266
     C     3.7776549791   -4.1559537116  -11.0907213124
     C     3.6997472211   -5.4699428186  -10.6352692115
     F     4.7401474485   -6.0259925125  -10.0126475111
     C     2.5608353596   -6.2439465131  -10.8164145974
     F     2.5245740154   -7.4992038466  -10.3727002383
     C     1.4612190209   -5.7041404758  -11.4704191276
     C     1.5089705786   -4.3966286520  -11.9358942953
     C     2.6572800844   -3.6426680770  -11.7408442919
     F     2.6653763539   -2.3885296846  -12.1956067610
     F     0.4558809018   -3.8663493395  -12.5544972953
     F     0.3657568818   -6.4331016482  -11.6534499596
     C     5.5817097658   -3.7140938559  -13.3100581609
     C     6.5828216477   -3.2913656137  -14.1145542378
     C     8.9300317740   -2.0170251214  -15.2141666177
     C     9.6403683327   -3.1557647186  -15.5878349803
     F    10.0178949646   -4.0421462528  -14.6654276564
     C     9.9778760821   -3.4140512032  -16.9093548681
     F    10.6571336158   -4.5153967076  -17.2228455509
     C     9.6027498417   -2.5167222506  -17.9004098815
     C     8.8992722119   -1.3696180338  -17.5587459561
     C     8.5728866730   -1.1335072798  -16.2293283255
     F     7.8880506828   -0.0237760442  -15.9484263408
     F     8.5288306979   -0.5050538837  -18.5012660206
     F     9.9105306129   -2.7590768932  -19.1690555578
     N     9.2647379260   -0.5816945716  -11.7526584608
     C    11.6055264410    1.7254456680   -9.9207834875
     C    11.4158895899    3.0911914361   -9.7191086353
     F    10.1790969460    3.5960764101   -9.7164441283
     C    12.4844804503    3.9536685230   -9.5286756367
     F    12.2354365705    5.2540804715   -9.3616742465
     C    13.7995142664    3.4868413405   -9.5053192911
     C    13.9930958822    2.1216696734   -9.7189718488
     C    12.9199413418    1.2643884962   -9.9225498276
     F    13.1672312956   -0.0354192178  -10.1027320890
     F    15.2254974624    1.6117303218   -9.7184569210
     S    15.1813078113    4.5573679846   -9.2702081176
     C    14.7909146840    5.2946408939   -7.6392485222
     C    15.9855770153    6.0982783409   -7.1463028243
     O    16.2679898512    7.2255130974   -7.9513421496
     H     1.8647748489    0.8175388117    1.0941462030
     H     3.5797501265   -0.7023740293    0.6833286998
     H     4.1568630613    0.9739096390    0.8095940936
     H     3.9358536495    1.2250395880   -1.6721958691
     H     3.4003073621   -0.4738839886   -1.7855746541
     H     8.9153399172    0.7191784336   -5.7540192916
     H    10.8100794474    1.6758174922   -7.3839567141
     H    11.9067195803    1.1909796739  -12.5801760232
     H    10.8964785784   -0.2585345265  -14.5880543681
     H     6.9847679689   -1.6952933694   -9.8255676671
     H     4.5569201429   -2.2792643759   -6.4052563301
     H     3.4555879261   -3.5924771698   -8.4556236264
     H     4.7630290716   -4.3760296851  -13.5607779701
     H     6.7403754009   -3.5267986218  -15.1589918534
     H     8.5408767434   -0.9318118582  -11.1330717819
     H    14.5740192300    4.4844171619   -6.9366317103
     H    13.9147566661    5.9398451983   -7.7355394181
     H    16.8653529598    5.4495968381   -7.0413315195
     H    15.7314353156    6.4749177737   -6.1490895681
     H    16.8552555067    6.9450522832   -8.6671213883
