33
-9.6422271697166934e+02 frame 32   xyz file generated by TeraChem
     O    -1.3867745551    2.0253823203   -0.4346974640
     C    -1.1570249466    0.7077832786   -0.4069121246
     C    -2.1741418704   -0.2367613890   -0.4486485270
     C    -1.8815935062   -1.5985726158   -0.4166607297
     C    -0.5696417074   -2.0542913793   -0.3430602657
     C     0.4998955478   -1.1030688908   -0.3005335094
     C     0.2098304870    0.2890090760   -0.3307817308
     N     1.1683783566    1.2488142088   -0.2911248889
     C     2.4228571982    0.8586975073   -0.2221075943
     C     2.8248306107   -0.4943479229   -0.1880274166
     C     1.8635250220   -1.4725743195   -0.2271549023
     N    -0.2070171056   -3.3939520748   -0.3035026365
     N    -1.1585680502   -4.2286768134   -0.3352986362
     C    -0.7246034743   -5.5401005037   -0.2881881081
     N    -1.5743589387   -6.5498566195   -0.3088027598
     C    -0.7789464909   -7.6682096059   -0.2433319198
     C     0.5897491993   -7.2998543491   -0.1822077755
     N     0.5837582147   -5.9308231051   -0.2132905786
     C     1.6162943062   -8.2411802800   -0.1069640767
     C     1.2346346774   -9.5760285659   -0.0938969836
     C    -0.1204832657   -9.9621743583   -0.1536309556
     C    -1.1372845871   -9.0235979904   -0.2290816597
     H    -2.3437750996    2.1868934676   -0.4816454961
     H    -3.2074273921    0.0976239311   -0.5068614944
     H    -2.6877243686   -2.3242591706   -0.4491286399
     H     3.1751949293    1.6457401347   -0.1907460017
     H     3.8798462311   -0.7440857986   -0.1315529874
     H     2.1267466525   -2.5244912646   -0.2025563376
     H     1.3730189255   -5.2994850155   -0.1879083409
     H     2.6600462362   -7.9454500010   -0.0603544006
     H     2.0006863555  -10.3444592658   -0.0355861550
     H    -0.3674199854  -11.0201688691   -0.1401258293
     H    -2.1819657944   -9.3180197426   -0.2753186716
