14
-3.9852074465887989e+02 frame 34   xyz file generated by TeraChem
     O     2.7931561766    0.1809908142    1.5070138128
     C     2.4425301726   -0.1640844664    0.1837948338
     C     3.0824466126   -1.5026269601   -0.1476140277
     C     2.5464909045   -2.0110414860   -1.4828297108
     O     2.1249499788   -1.2903178294   -2.3614216483
     O     2.6334240099   -3.3326155735   -1.7028938351
     N     4.5410965524   -1.3945253766   -0.1743186378
     H     2.4050332714    1.0482576578    1.6881510032
     H     2.7922823126    0.5868162235   -0.5401406615
     H     1.3527892186   -0.2527167416    0.0655931021
     H     2.8140922410   -2.2151078235    0.6431760394
     H     2.9558362862   -3.7963410536   -0.9117128568
     H     4.8213815736   -0.8266994051   -0.9726665827
     H     4.9616210177   -2.3106180050   -0.3137310222
