38
-9.3432992554915859e+02 frame 27   xyz file generated by TeraChem
     C    -3.7585541969    4.4290670380   -2.2276630584
     C    -3.1080569068    3.8018058307   -1.1610738170
     C    -3.4883488562    2.5309127101   -0.7517536010
     C    -4.5331106460    1.8666429117   -1.4143630002
     C    -5.1855869803    2.5006796930   -2.4785361678
     C    -4.7994450547    3.7745243742   -2.8840867150
     N    -5.0017801644    0.5747688599   -1.0924560349
     N    -4.3513688465    0.0050926634   -0.1659015596
     C    -4.7865885504   -1.2431969446    0.1869033485
     C    -4.1244407378   -1.9841189753    1.1804348462
     N    -4.8130774115   -3.1405905286    1.3731095796
     C    -5.9005827417   -3.2073399339    0.5282050866
     C    -5.9279186430   -2.0216424100   -0.2426088371
     C    -6.9617315415   -1.8460762355   -1.1739345756
     C    -7.9125160251   -2.8496436007   -1.3120374645
     C    -7.8562513872   -4.0235487668   -0.5412095851
     C    -6.8475755818   -4.2200505663    0.3931005101
     C    -2.9278405764   -1.6761511548    1.9608779552
     C    -2.8139786455   -2.1336818959    3.2835309356
     C    -1.6734263799   -1.8594828734    4.0301638374
     C    -0.6296609785   -1.1239266291    3.4710121299
     C    -0.7333429866   -0.6654866348    2.1581734144
     C    -1.8694531711   -0.9402283959    1.4049826775
     H    -3.4549548899    5.4243530046   -2.5410291269
     H    -2.2989282916    4.3128225809   -0.6451706919
     H    -2.9906660899    2.0391718914    0.0779507934
     H    -5.9940237164    1.9739351420   -2.9789076409
     H    -5.3112008960    4.2565087922   -3.7128622924
     H    -4.5099810658   -3.8933513455    1.9761009494
     H    -7.0081365569   -0.9444126119   -1.7732382802
     H    -8.7169829878   -2.7266914991   -2.0323723917
     H    -8.6146415217   -4.7899918447   -0.6758337854
     H    -6.7971760433   -5.1218662034    0.9968763587
     H    -3.6325995195   -2.6831174831    3.7415160605
     H    -1.6043777175   -2.2153184235    5.0545068842
     H     0.2611167254   -0.9099520211    4.0554655798
     H     0.0800340926   -0.0984820725    1.7133597881
     H    -1.9426128223   -0.5946751126    0.3798655235
