80
-1.9544884779764461e+03 frame 90   xyz file generated by TeraChem
     C    -3.9477934220   -3.6302250954   -5.9782584859
     C    -4.7000626124   -2.6918404206   -5.2730046093
     C    -4.1932271895   -2.1191599809   -4.1106715042
     C    -2.9290609542   -2.4875825599   -3.6332199651
     C    -2.1884007707   -3.4461899684   -4.3359203197
     C    -2.6907778805   -4.0062102551   -5.5064021650
     C    -2.4001663766   -1.9445249900   -2.3587582204
     N    -1.8233130596   -2.8138298606   -1.5552479828
     C    -1.4300098678   -2.4127399536   -0.3219599492
     C    -1.6964936671   -1.0860098208    0.1139301195
     N    -2.2207943798   -0.1802613202   -0.7457504316
     C    -2.5348888051   -0.5610877968   -1.9658173831
     C    -2.9789972942    0.5175769391   -2.8818251398
     C    -2.4987830939    0.6069015404   -4.1944598695
     C    -2.8725441326    1.6721036050   -5.0081378454
     C    -3.7382357651    2.6531025225   -4.5262722087
     C    -4.2176698368    2.5726730608   -3.2194069488
     C    -3.8325017552    1.5173592188   -2.3987806109
     C    -1.3724928322   -0.6845094354    1.4417774621
     C    -0.7695795606   -1.6095648005    2.2685174824
     C    -0.4743882098   -2.9169584915    1.8253135604
     C    -0.7913770285   -3.3399603966    0.5507034741
     C    -0.4833519849   -4.7257480287    0.0996801763
     C     0.7547819477   -5.0013085710   -0.5147515720
     C     1.7368503600   -3.9894616392   -0.7468450126
     C     2.9311381864   -4.2876263463   -1.3443480678
     C     3.2280916140   -5.6180421680   -1.7511350983
     C     2.3165171017   -6.6160966212   -1.5483699277
     C     1.0581935083   -6.3468805265   -0.9298635929
     C     0.1207864199   -7.3594323836   -0.7199535403
     C    -1.1095838935   -7.0971598997   -0.1145784032
     C    -1.4223181176   -5.7556483231    0.3061886950
     C    -2.6918635569   -5.5222052095    0.9192143749
     C    -3.5856248903   -6.5417365958    1.1027777601
     C    -3.2725583221   -7.8659225120    0.6877653508
     C    -2.0687863443   -8.1326922773    0.0974128369
     C    -1.6728331046    0.6979181728    1.9076899326
     C    -2.9254989315    0.9839797852    2.4864102001
     C    -3.9401763041   -0.0094500257    2.6470687861
     C    -5.1477524699    0.2986186163    3.2119215589
     C    -5.4256647047    1.6208624683    3.6569259685
     C    -4.4829930578    2.6014010805    3.5221616544
     C    -3.2111162032    2.3219918820    2.9370133489
     C    -2.2436440558    3.3176745474    2.7926129817
     C    -0.9997952159    3.0453914668    2.2202842869
     C    -0.7034018331    1.7106294036    1.7673808987
     C     0.5768691133    1.4688874227    1.1804775074
     C     1.4964154546    2.4738884813    1.0525591094
     C     1.2011824408    3.7904576469    1.5032869470
     C    -0.0120434286    4.0649128572    2.0702294457
     H    -4.3418598372   -4.0699318517   -6.8906768305
     H    -5.6870427979   -2.4059026922   -5.6265396818
     H    -4.7885370454   -1.3947900222   -3.5625632651
     H    -1.2139642349   -3.7431972757   -3.9587733835
     H    -2.1006580094   -4.7391897855   -6.0500846976
     H    -1.8181219301   -0.1493680930   -4.5748151769
     H    -2.4835954722    1.7369271398   -6.0207683871
     H    -4.0347675093    3.4798314361   -5.1663417084
     H    -4.8910593933    3.3351722250   -2.8370306571
     H    -4.1931301127    1.4552063734   -1.3759490700
     H    -0.5096829270   -1.3266902500    3.2851256288
     H     0.0092142432   -3.6089466829    2.5095398415
     H     1.5245682718   -2.9703393100   -0.4373442317
     H     3.6637254018   -3.5022970149   -1.5106728588
     H     4.1828280852   -5.8343624589   -2.2229095203
     H     2.5312166031   -7.6374117115   -1.8547766272
     H     0.3538635860   -8.3746752703   -1.0354388897
     H    -2.9408194165   -4.5160967027    1.2436141270
     H    -4.5459581855   -6.3418241493    1.5707029443
     H    -3.9956167276   -8.6620774179    0.8431113470
     H    -1.8175229313   -9.1407680480   -0.2244561675
     H    -3.7393674422   -1.0239097304    2.3153954826
     H    -5.9049786674   -0.4728350612    3.3240568834
     H    -6.3904740796    1.8448646202    4.1039504541
     H    -4.6827855798    3.6162559984    3.8586096516
     H    -2.4639481528    4.3276644129    3.1331278442
     H     0.8141670370    0.4675036682    0.8334678772
     H     2.4639016742    2.2681089846    0.6022545062
     H     1.9453250322    4.5747144792    1.3936079988
     H    -0.2502130144    5.0674756216    2.4182331525
