84
-2.1068146906409502e+03 frame 71   xyz file generated by TeraChem
     C    -0.5814121132   -2.7646059425    4.5161069759
     C    -1.0516219396   -3.8561427963    3.7869963616
     C    -1.4978799315   -3.6829509854    2.4806646528
     C    -1.4972228058   -2.4119152152    1.8923485812
     C    -1.0190806615   -1.3211784061    2.6300337378
     C    -0.5594577415   -1.4991985519    3.9311373506
     C    -1.9232129176   -2.2605054751    0.4799277250
     N    -1.5111799780   -3.1943895474   -0.3513866567
     C    -1.7559882514   -3.0614640313   -1.6768217032
     C    -2.3865466631   -1.8831973777   -2.1669786955
     N    -2.8598862730   -0.9589202088   -1.2979509979
     C    -2.6925446081   -1.1405315431   -0.0056401369
     C    -3.3679981928   -0.1601492711    0.8786203297
     C    -3.3572295582    1.1979694885    0.5376890039
     C    -4.0321748205    2.1275181731    1.3226938789
     C    -4.7431912444    1.7086533764    2.4465400163
     C    -4.7745665096    0.3556099973    2.7815366260
     C    -4.0870018144   -0.5737901025    2.0070859263
     C    -2.5407575074   -1.6751238802   -3.5700641541
     C    -2.0587862678   -2.6531613798   -4.4185433917
     C    -1.4673371438   -3.8360343711   -3.9327060371
     C    -1.3099684661   -4.0727743342   -2.5800420040
     C    -0.7351944273   -5.3460205403   -2.0829472214
     C    -1.5289099545   -6.1754584508   -1.2812314926
     C    -1.0825117216   -7.4159763659   -0.8520754897
     C     0.1914192799   -7.8783257385   -1.2060772868
     C     1.0294990841   -7.0438138938   -1.9981980177
     C     0.5675495121   -5.7656819641   -2.4369970154
     C     1.4703237453   -4.9453783170   -3.1966886358
     C     2.7177107616   -5.3736764293   -3.5255972632
     C     3.1932521550   -6.6653827325   -3.1278433490
     C     2.3347697652   -7.4945618085   -2.3524905636
     C     2.7885937502   -8.7774713618   -1.9291669439
     C     1.9141444894   -9.5958294175   -1.1401953750
     C     0.6734397988   -9.1637213038   -0.7921541251
     C     4.0740567826   -9.2016561185   -2.2935626674
     C     4.9043344581   -8.3840776359   -3.0541595747
     C     4.4719768237   -7.1274662605   -3.4671046979
     C    -3.1338933858   -0.4272719862   -4.1148680847
     C    -2.3172598818    0.4115652041   -4.8804375608
     C    -2.7897868153    1.6069717885   -5.4057114106
     C    -4.1110730843    2.0103231084   -5.1826383396
     C    -4.9712844700    1.1599755977   -4.4301008711
     C    -4.4846216226   -0.0718904399   -3.9015512867
     C    -5.4037524637   -0.9158319880   -3.1912580605
     C    -6.6957301024   -0.5468760045   -2.9865564310
     C    -7.2010329256    0.7033818114   -3.4721077972
     C    -6.3238613910    1.5508962800   -4.2054977221
     C    -6.8040853699    2.7928679935   -4.7128741308
     C    -5.9083534714    3.6284102250   -5.4599559105
     C    -4.6228433254    3.2515861084   -5.6880210684
     C    -8.1339638353    3.1616879648   -4.4689392714
     C    -8.9826773022    2.3278139635   -3.7467466791
     C    -8.5247949353    1.1094557872   -3.2547685604
     H    -0.2289348769   -2.9001448800    5.5351538148
     H    -1.0693540344   -4.8455780756    4.2362415061
     H    -1.8537518223   -4.5328059559    1.9051397344
     H    -0.9895388867   -0.3334047943    2.1792958817
     H    -0.1803289311   -0.6466965260    4.4882738498
     H    -2.8097196374    1.5180150109   -0.3441942027
     H    -4.0047104364    3.1805547174    1.0553390981
     H    -5.2737955169    2.4338933029    3.0577614858
     H    -5.3388794568    0.0208699039    3.6478029112
     H    -4.1218154634   -1.6270985877    2.2707010287
     H    -2.1616450677   -2.5207377083   -5.4922202966
     H    -1.1429887262   -4.5894586461   -4.6455399081
     H    -2.5270541154   -5.8428200641   -1.0107010974
     H    -1.7268409739   -8.0465052233   -0.2442177090
     H     1.1436884102   -3.9567807144   -3.5029882868
     H     3.3844382775   -4.7316055850   -4.0964633688
     H     2.2694822153  -10.5731385739   -0.8219849131
     H     0.0177474059   -9.7886881930   -0.1904905536
     H     4.4160855634  -10.1820676030   -1.9706692295
     H     5.8983655914   -8.7286478621   -3.3263512108
     H     5.1246238669   -6.4891846467   -4.0579771253
     H    -1.2817484069    0.1255765104   -5.0457176446
     H    -2.1285273769    2.2461176223   -5.9857668381
     H    -5.0500386026   -1.8717128019   -2.8183514174
     H    -7.3750281872   -1.2031357852   -2.4474645232
     H    -6.2848308366    4.5734790512   -5.8444749130
     H    -3.9516847511    3.8894598695   -6.2583133224
     H    -8.4969548666    4.1115587360   -4.8543994240
     H   -10.0112150790    2.6295399151   -3.5677480702
     H    -9.1919195790    0.4581956875   -2.6949583152
