33
-2.0278196820514584e+03 frame 53   xyz file generated by TeraChem
     C     0.2843998622    2.0407641839   -3.2275479396
     C    -0.7603659101    1.3033614917   -3.7822266971
     C    -1.9361247230    1.1103175327   -3.0661404770
     C    -2.0806060412    1.6550513090   -1.7831585888
     C    -1.0249713707    2.3965857995   -1.2301996511
     C     0.1474223321    2.5856763032   -1.9504289128
     C    -3.3063775028    1.4644056622   -1.0104669937
     N    -3.4639410271    1.9050925974    0.2190041277
     N    -4.6627848675    1.6238437778    0.7547240360
     C    -5.4403306792    0.9563755277   -0.0658466730
     S    -4.7100865275    0.6366661807   -1.6114601291
     N    -6.7296833023    0.5051822382    0.1270496496
     N    -7.1650249884    0.6910300066    1.3122485042
     C    -8.4420956060    0.2762343788    1.5190159094
     C    -9.3923212030   -0.3012104578    0.6825240757
     C   -10.5943066792   -0.5628434348    1.3397092537
     C   -10.5894777196   -0.1933253696    2.6851603951
     S    -9.0674702585    0.4894637206    3.1344308960
     C   -11.6596887370   -0.3254290948    3.6374262054
     C   -11.6708146408    0.0163552729    4.9755497541
     C   -12.9053634314   -0.2558930634    5.6106794252
     C   -13.8269336561   -0.8020377558    4.7568440586
     S   -13.2010723115   -0.9901479226    3.1694301861
     H     1.2028079093    2.1907060255   -3.7884618719
     H    -0.6610443664    0.8750025900   -4.7755117623
     H    -2.7409078184    0.5296044960   -3.5109095116
     H    -1.1364003752    2.8199616391   -0.2373026328
     H     0.9582829302    3.1620852970   -1.5137059567
     H    -9.1978161634   -0.5139281178   -0.3620582393
     H   -11.4574374599   -1.0111754019    0.8581918899
     H   -10.8147619451    0.4488735184    5.4843376662
     H   -13.1058233867   -0.0570265848    6.6576639709
     H   -14.8442177150   -1.1058412977    4.9703148405
