61
-1.4892802235849217e+03 frame 72   xyz file generated by TeraChem
     C   -12.4661997981   -0.3904611473   -5.5080576230
     C   -11.8326852512    0.4182890533   -4.5651165466
     C   -10.4442926891    0.4587261590   -4.4984189837
     C    -9.6625050695   -0.3129153407   -5.3689435078
     C   -10.3090697354   -1.1191004872   -6.3152891471
     C   -11.6989980940   -1.1566275864   -6.3838614837
     C    -8.1828447716   -0.2586887859   -5.2761779038
     C    -7.3775059336   -1.3210526964   -5.7094577196
     C    -5.9982607346   -1.2056036122   -5.5926820688
     C    -5.4542388350   -0.0517667536   -5.0432065108
     C    -6.3275257224    0.9551337338   -4.6217925731
     N    -7.6554309754    0.8497162166   -4.7411193586
     C    -5.8052480614    2.2112859073   -4.0190266346
     N    -4.4794828018    2.2858823307   -3.8270188855
     C    -4.0007983061    3.4043942813   -3.2820252026
     C    -4.7877085277    4.4879046833   -2.9089858689
     C    -6.1723077584    4.4216087406   -3.1088855400
     C    -6.6754759704    3.2465687308   -3.6753384160
     C    -7.0645002456    5.5403453175   -2.7448405852
     C    -8.2284598596    5.8026513257   -3.4857587922
     C    -9.0681981660    6.8529535914   -3.1539400979
     C    -8.7853223124    7.6887817729   -2.0585287614
     C    -7.6208804344    7.4213409787   -1.3197034597
     C    -6.7757690260    6.3726092808   -1.6553788306
     C    -9.6319359076    8.8082970171   -1.6550686776
     C   -10.7778105950    9.1979860776   -2.2475973052
     C   -11.6294905257   10.3155693505   -1.8494060814
     C   -11.3689433177   11.1385598359   -0.7392433967
     C   -12.2156616207   12.1832051176   -0.4044283034
     C   -13.3461410946   12.4446451512   -1.1848653329
     C   -13.6213734013   11.6484920033   -2.2968755072
     C   -12.7753771626   10.5938864567   -2.6118738197
     N   -14.2117378832   13.5096700735   -0.8447462438
     C   -13.8568178389   14.7233865266   -0.2931277529
     C   -15.0276299854   15.4124862093   -0.1394837181
     N   -16.0949361929   14.6588451606   -0.5705659869
     C   -15.5701220251   13.5293519699   -0.9865370975
     H   -13.5512539173   -0.4215456477   -5.5617379251
     H   -12.4226410168    1.0174549545   -3.8762777296
     H    -9.9478967189    1.0832882293   -3.7621185992
     H    -9.7275100897   -1.7050027435   -7.0218296725
     H   -12.1832943760   -1.7812140519   -7.1298768508
     H    -7.8208690850   -2.2267525913   -6.1096412493
     H    -5.3518295426   -2.0153614021   -5.9201734481
     H    -4.3843449944    0.0792398155   -4.9313304309
     H    -2.9221355464    3.4443707356   -3.1386004075
     H    -4.3207258090    5.3755688016   -2.4935990466
     H    -7.7384366137    3.1119613191   -3.8403729272
     H    -8.4653547335    5.1884861390   -4.3501821631
     H    -9.9517670239    7.0281963655   -3.7606161351
     H    -7.3825112051    8.0477953966   -0.4631266000
     H    -5.8942435974    6.1837220900   -1.0487441201
     H    -9.2683116160    9.3575468154   -0.7870837797
     H   -11.1375991894    8.6493456396   -3.1173965427
     H   -10.4997148538   10.9547453487   -0.1150605968
     H   -12.0104928637   12.7885125396    0.4735875327
     H   -14.4825916069   11.8634666534   -2.9222757116
     H   -12.9968964474    9.9779660844   -3.4800857620
     H   -12.8264336329   14.9826395911   -0.1002129279
     H   -15.1608679383   16.4123882581    0.2532615584
     H   -16.1153156992   12.6783874665   -1.3733628437
