47
-1.9760078457597074e+03 frame 38   xyz file generated by TeraChem
     C     1.9292366148    2.0874004556    1.3605207398
     C     1.3202126084    2.7553625570    0.2853287206
     C     0.0428585647    2.4188912399   -0.1325510593
     C    -0.6443610408    1.3941556634    0.5353093552
     C    -0.0157208390    0.7287780496    1.6181745896
     C     1.2700302710    1.0684569667    2.0372678752
     S    -1.0960327338   -0.4798394682    2.2435874894
     C    -2.2754333810    0.0041748662    1.0232925518
     N    -1.9122064498    0.9653783694    0.2241789190
     N    -3.4562955150   -0.7075657008    1.0680360546
     N    -4.3057106803   -0.3411424816    0.1805462862
     C    -5.4694105136   -1.0141626985    0.1891884273
     C    -5.9865830088   -2.0674380799    0.9604520063
     C    -7.2644452027   -2.3261887713    0.4957907967
     C    -7.5414654996   -1.4353807210   -0.5627193326
     N    -6.4433095164   -0.6464842514   -0.7384787077
     C    -6.2962284502    0.4506942267   -1.6425435637
     C    -6.8659061292    1.6592312586   -1.3236487767
     C    -6.7372099299    2.7555390648   -2.2033315964
     C    -6.0338746169    2.6213058843   -3.3753388013
     C    -5.4321683636    1.3857781788   -3.7255115472
     C    -5.5637470348    0.2655450542   -2.8482040605
     C    -4.9742886154   -0.9706554568   -3.2128517026
     C    -4.2749703662   -1.0876744813   -4.3904315488
     C    -4.1332590660    0.0208190979   -5.2561870545
     C    -4.7007476062    1.2288123381   -4.9303134100
     C    -8.7551764009   -1.3553903374   -1.3391622241
     C    -8.9984300865   -0.8229067467   -2.5891979580
     C   -10.3413480615   -0.9859052292   -3.0117889305
     C   -11.1135587641   -1.6358480139   -2.0876835179
     S   -10.2135151185   -2.0553791398   -0.6879963601
     H     2.9316480622    2.3699541832    1.6696201653
     H     1.8603764788    3.5477848424   -0.2252243548
     H    -0.4366473249    2.9292271860   -0.9627738615
     H     1.7431967958    0.5534718938    2.8679616995
     H    -5.4548269559   -2.5710038477    1.7557056791
     H    -7.9426997315   -3.0923316838    0.8488177500
     H    -7.4141058511    1.7626695811   -0.3917172377
     H    -7.1942666738    3.7050459335   -1.9408213349
     H    -5.9273712686    3.4636160838   -4.0546690317
     H    -5.0800099756   -1.8260067251   -2.5518681244
     H    -3.8268484214   -2.0401917521   -4.6598914225
     H    -3.5749652450   -0.0881126009   -6.1819116449
     H    -4.6004171404    2.0856426824   -5.5922574592
     H    -8.2361312214   -0.3518822726   -3.1972367391
     H   -10.7188097653   -0.6385566133   -3.9674538761
     H   -12.1648308116   -1.8888901219   -2.1460846220
