27
-5.3647005182054511e+02 frame 70   xyz file generated by TeraChem
     C    -0.5614506352    0.4013308989    2.2797832458
     C     0.7792851161    0.2193767425    2.5450518718
     C     1.0397805688   -1.1770162346    2.4610861185
     C    -0.1514811224   -1.7965140928    2.1453628397
     N    -1.1100590439   -0.8280407702    2.0452351843
     C     2.2607217395   -0.6428865450   -1.6109929944
     C     0.9779232121    0.1439951240   -1.6201088003
     C     0.9899378707    1.5403559244   -1.5404938877
     C    -0.2133931841    2.2448429510   -1.5193349787
     C    -1.4325207894    1.5794979569   -1.5690057597
     C    -1.4636816726    0.1773631864   -1.6476977651
     C    -0.2483549382   -0.5211149783   -1.6830301494
     N    -2.6748670653   -0.5071765743   -1.6191871138
     H    -1.1650398245    1.2971372000    2.2350560115
     H     1.4911775953    1.0016690395    2.7760257545
     H     1.9891309699   -1.6727873439    2.6204200947
     H    -0.3949278755   -2.8384519983    1.9903654897
     H    -2.0722274993   -0.9910219831    1.7866837346
     H     3.1234577878   -0.0024650573   -1.8186912901
     H     2.2428031130   -1.4482030111   -2.3536180077
     H     2.4214904960   -1.1109533248   -0.6311721720
     H     1.9379998001    2.0712040350   -1.4993688073
     H    -0.2025736365    3.3311262192   -1.4650410146
     H    -2.3674321101    2.1354983398   -1.5491949772
     H    -0.2674676767   -1.6083122257   -1.7485016436
     H    -3.4621747518    0.0249494173   -1.9696767167
     H    -2.6460378968   -1.4253199729   -2.0459843833
