41
-2.1368327090095549e+03 frame 53   xyz file generated by TeraChem
     O    10.1022409665    5.5577740358    6.4025071700
     N    10.1550379459    4.4105417477    5.9885404202
     O    11.1919201381    3.8015135773    5.7773148173
     C     8.8919698738    3.7175195046    5.7304337024
     C     7.7020865364    4.3955949798    5.9671826756
     C     6.5039311488    3.7378986374    5.7202970341
     C     6.5392044759    2.4280227259    5.2463795481
     C     7.7367235320    1.7560828823    5.0073202472
     C     8.9354137354    2.4116440976    5.2540195636
     S     4.9957872899    1.5899385725    4.9192880491
     O     3.9679595824    2.6165340587    4.7351413297
     O     5.2435423198    0.5832932545    3.8866403879
     C     4.6115577773    0.7275852992    6.3973913086
     C     4.9552612114   -0.5717588532    6.6920885917
     N     4.5329424066   -1.0332720769    7.8907639525
     C     3.8642597096   -0.0968104978    8.5287547462
     S     3.7028518137    1.4174880461    7.6868787401
     N     3.2514983208   -0.1441056638    9.7665014588
     N     3.4278328527   -1.2435261119   10.3761621534
     C     2.8231322419   -1.3528191673   11.6104634935
     C     2.0304396247   -0.3632544233   12.1939591495
     C     1.4456159564   -0.5487600448   13.4403814314
     C     1.6390023329   -1.7349327739   14.1429963161
     C     2.4472462327   -2.7806665978   13.5887663609
     C     3.0393992270   -2.5843443056   12.3135506090
     C     3.8269338804   -3.6402124904   11.8004205056
     C     3.9814512703   -4.7836247811   12.5438371939
     C     3.3475360311   -4.8709314155   13.8023221587
     N     2.6056920017   -3.9134427431   14.3165740726
     O     1.0969251601   -1.9615588497   15.3388810843
     H     7.7163966653    5.4160565591    6.3311067632
     H     5.5565053257    4.2404715506    5.8844438852
     H     7.7349911173    0.7397982846    4.6269642990
     H     9.8876520460    1.9258809535    5.0775231370
     H     5.5196651619   -1.2160524325    6.0262050736
     H     1.8715941872    0.5647600495   11.6544750468
     H     0.8291051925    0.2330920547   13.8772241413
     H     4.2948802286   -3.5285432216   10.8283558609
     H     4.5788724825   -5.6139571140   12.1804138896
     H     3.4622073322   -5.7721782940   14.4028324031
     H     0.5749180591   -1.1887426529   15.6130650518
