67
-1.5709489995503400e+03 frame 57   xyz file generated by TeraChem
     O     2.3929399591    0.1408168969   -2.3011755332
     C     3.1429324021   -0.8369708573   -2.5201988937
     O     2.8241754795   -2.0538728083   -2.5624653200
     C     4.6168004631   -0.5371210410   -2.7640195448
     C     5.0743666567    0.7815954862   -2.7724580447
     C     6.4148306985    1.0793781314   -2.9926202582
     C     7.3235579159    0.0440924433   -3.2079655187
     C     6.8840683119   -1.2767292283   -3.2011668144
     C     5.5333492570   -1.5747648021   -2.9812917933
     C     5.1367553993   -3.0100483309   -2.9759799086
     C     4.8910336402   -3.6871223621   -4.1868625958
     C     4.8207723960   -3.0454484158   -5.4486055861
     C     4.5632598477   -3.7275755219   -6.6052288119
     C     4.5185753221   -3.0372385149   -7.9387853613
     C     3.4563699210   -3.6880827727   -8.8135649742
     C     3.7712756760   -5.1627374342   -8.9676458229
     N     4.0188238056   -5.8189144433   -7.6871298558
     C     4.3171374724   -5.1447488636   -6.5523128094
     C     4.3967603012   -5.8272939583   -5.3103430869
     C     4.6731766989   -5.0872796274   -4.1736456997
     O     4.7253913975   -5.7795423311   -3.0076292281
     C     5.0142282370   -5.1645121162   -1.8325674261
     C     5.2413754851   -3.7694040022   -1.7902397080
     C     5.5348757925   -3.2141529595   -0.5225471310
     C     5.5880701791   -3.9692510241    0.6181247255
     C     5.8575535093   -3.3280402493    1.9535234832
     C     6.5019514971   -4.3224147491    2.9059740049
     C     5.6424145651   -5.5695656792    2.9797142216
     N     5.4313411633   -6.1518472881    1.6607169973
     C     5.3603488774   -5.3878247409    0.5391932012
     C     5.0743805916   -5.9842052816   -0.7164621255
     C     4.8392912137   -7.4664143360   -0.8456363136
     C     5.4388140459   -8.2139337929    0.3356593334
     C     5.0222929676   -7.5492669103    1.6337507672
     C     4.1984805085   -7.3167955266   -5.2460936363
     C     4.5878103486   -7.9447219700   -6.5772644449
     C     3.8434348278   -7.2658324108   -7.7090178055
     H     4.3433367795    1.5661429550   -2.5996874092
     H     6.7526793980    2.1126420164   -2.9967723063
     H     8.3744443194    0.2615162806   -3.3800208280
     H     7.5910465262   -2.0863004196   -3.3656253852
     H     4.9834860789   -1.9720749987   -5.4923587499
     H     4.3270745166   -1.9682285204   -7.8003589705
     H     5.4954902024   -3.1262460773   -8.4362249695
     H     2.4684957171   -3.5658460282   -8.3528968392
     H     3.4211851750   -3.2270755911   -9.8055032171
     H     4.6489242585   -5.3034943309   -9.6154994310
     H     2.9325988685   -5.6860724858   -9.4418075565
     H     5.7108019107   -2.1440714489   -0.4552642648
     H     6.4849905559   -2.4409749640    1.8163466425
     H     4.9100493144   -2.9803585806    2.3898247034
     H     7.5060793359   -4.5906710587    2.5550394541
     H     6.6030202576   -3.8950966610    3.9085350485
     H     4.6725126908   -5.3358731951    3.4459049799
     H     6.1241745658   -6.3328880516    3.5990980407
     H     5.2670902208   -7.8295742519   -1.7860773717
     H     3.7599264768   -7.6666053633   -0.9026544483
     H     5.1080994325   -9.2572730189    0.3389247488
     H     6.5334856785   -8.2130331879    0.2681705070
     H     5.4912968773   -8.0453710594    2.4886428746
     H     3.9320735223   -7.6217723729    1.7698007327
     H     3.1491810090   -7.5527574700   -5.0177775765
     H     4.7959764631   -7.7389434710   -4.4321455082
     H     5.6682294794   -7.8397766799   -6.7355725739
     H     4.3549555099   -9.0140253926   -6.5863505137
     H     2.7691779407   -7.4994772441   -7.6607206971
     H     4.2091715813   -7.6236513488   -8.6782692290
