47
-1.5619992087088099e+03 frame 46   xyz file generated by TeraChem
     N     2.0821637936   -1.5108093650   -0.3809534206
     C     1.2493480270   -1.2575290764   -1.3975726101
     C    -0.1245083347   -1.4065937198   -1.3004362952
     C    -0.6340215170   -1.8417312618   -0.0704025125
     N     0.1950013093   -2.0994920745    0.9597873539
     C     1.4922577002   -1.9204252961    0.7439884284
     C    -2.0546349314   -2.0423062641    0.1788156339
     C    -2.6347790889   -2.4829771302    1.3477585864
     C    -4.0396739478   -2.5780630608    1.2718607135
     C    -4.5488887976   -2.2114058385    0.0428796517
     S    -3.2664020828   -1.7349663824   -1.0255816564
     C    -5.9464898787   -2.1875999110   -0.3866235183
     C    -6.9748784030   -2.1206140069    0.5672939677
     C    -8.3076904085   -2.1191164322    0.1832388774
     C    -8.6481471090   -2.1550877053   -1.1723649198
     C    -7.6353495537   -2.2047105640   -2.1337154297
     C    -6.3040294372   -2.2336132302   -1.7428592593
     N   -10.0036208168   -2.1418520586   -1.5669117247
     C   -10.9594326982   -1.2125846003   -1.1644693656
     C   -10.8178043427   -0.0919486124   -0.3442554148
     C   -11.9451326020    0.6911128380   -0.1227871609
     C   -13.1840460584    0.3765629453   -0.7032274705
     C   -13.3155469861   -0.7316192706   -1.5302749601
     C   -12.1968070492   -1.5345926662   -1.7692845289
     C   -11.9743783345   -2.7146761303   -2.5709510295
     C   -10.6102436764   -3.0579592286   -2.4224382796
     C   -10.0689036764   -4.1834604664   -3.0458612622
     C   -10.9147262724   -4.9499568043   -3.8398063071
     C   -12.2672105026   -4.6144535280   -4.0096035455
     C   -12.8038872357   -3.5013279982   -3.3751271256
     H     1.7025404840   -0.9213813277   -2.3283357594
     H    -0.7651447747   -1.1911710262   -2.1498659945
     H     2.1512771598   -2.1328700901    1.5848171541
     H    -2.0492283303   -2.7362320555    2.2239200281
     H    -4.6607912557   -2.9280355650    2.0892904646
     H    -6.7305431463   -2.0672323730    1.6238535363
     H    -9.0897092028   -2.0920205759    0.9361700175
     H    -7.8921155374   -2.2181299928   -3.1886319418
     H    -5.5351828625   -2.2967154029   -2.5088614094
     H    -9.8635469517    0.1658063110    0.1044056865
     H   -11.8604616950    1.5673632942    0.5145064980
     H   -14.0447892810    1.0095968763   -0.5063589911
     H   -14.2714938390   -0.9709357046   -1.9896309827
     H    -9.0263893231   -4.4569679194   -2.9171083285
     H   -10.5157222364   -5.8300447673   -4.3372222940
     H   -12.8984953940   -5.2348326055   -4.6396866222
     H   -13.8536227756   -3.2457018705   -3.4965227957
