18
-5.5876443232990619e+02 frame 27   xyz file generated by TeraChem
     O     2.5742362511   -2.2776328757    0.8373074337
     C     2.2948401477   -1.1711016567    0.1341452952
     O     1.4122801807   -0.4311593266    0.5025883313
     C     3.1405061204   -0.9294120763   -1.1056360494
     C     4.5891744675   -0.6631318981   -0.7790236918
     C     5.1173950918    0.6303275761   -0.7540703218
     C     6.4585183622    0.8547620828   -0.4515449642
     C     7.3009364199   -0.2184464594   -0.1668243412
     C     6.8024930633   -1.5196257697   -0.1817973666
     C     5.4660396806   -1.7022141218   -0.4858951213
     F     4.9710744793   -2.9719395353   -0.4910716169
     H     3.2943831438   -2.7826424857    0.4168152635
     H     2.7122753260   -0.0715770371   -1.6263102992
     H     3.0534618694   -1.8067332623   -1.7591769419
     H     4.4616327352    1.4669614364   -0.9819419468
     H     6.8461494061    1.8692386748   -0.4413622073
     H     8.3474233836   -0.0483057370    0.0688627193
     H     7.4276305986   -2.3796579756    0.0365348575
