48
-1.7985642809696574e+03 frame 49   xyz file generated by TeraChem
     N     1.1490219779    1.0708528225    0.9811346081
     C     0.3906575194    0.3705607600    0.1460691941
     S     0.2792103839    0.7845968342   -1.5524688137
     C    -0.8302947631   -0.5896326537   -1.7240591298
     C    -1.0236856497   -1.2147709672   -0.4773972468
     N    -0.3267417633   -0.6693486068    0.5460702189
     C    -1.8769843602   -2.3692871916   -0.2055643354
     C    -1.6677576502   -3.1088266047    0.9697360268
     C    -2.4492897647   -4.2069034388    1.2916371265
     C    -3.4901822027   -4.5938892822    0.4332545592
     C    -3.7141531794   -3.8558769760   -0.7407563970
     C    -2.9258018681   -2.7641037473   -1.0539250023
     N    -4.3250398430   -5.6857153880    0.6671938301
     C    -4.4081513201   -6.4761987811    1.7835458696
     O    -3.7449757878   -6.2832998756    2.7981133502
     C    -5.3901874130   -7.6003516803    1.6981798340
     C    -5.7815094385   -8.1954350369    0.4929026912
     C    -6.6815807652   -9.2576026343    0.4985661425
     C    -7.2003110435   -9.7300225829    1.7025559738
     C    -6.8075836187   -9.1456807017    2.9066757677
     C    -5.9011493894   -8.0921712655    2.9043817180
     N    -1.3253476387   -0.9606763106   -2.9010122818
     N    -0.9993640320   -0.2183168106   -3.8946024286
     C    -1.4973703746   -0.6517145474   -5.1217913329
     C    -2.2037812407   -1.8547031471   -5.3251226324
     C    -2.6510980886   -2.1935188864   -6.5871473056
     C    -2.3920292817   -1.3327777948   -7.6565791109
     C    -1.6906326448   -0.1397325166   -7.4842542272
     C    -1.2455761574    0.1927620089   -6.2175629476
     N    -2.8574333893   -1.6912407110   -8.9773833035
     O    -3.4760411911   -2.7417044690   -9.1115990933
     O    -2.6133627849   -0.9286495028   -9.9063521939
     H     1.6823184788    1.8748002049    0.6835671345
     H     1.1774440807    0.8077731008    1.9572702637
     H    -0.8651802060   -2.8149793694    1.6383694885
     H    -2.2670561437   -4.7631442937    2.2004106640
     H    -4.5271683549   -4.1405564624   -1.4042366604
     H    -3.1285936924   -2.2022046634   -1.9579902513
     H    -5.0055372526   -5.8612761622   -0.0609156171
     H    -5.3656725041   -7.8649040377   -0.4557020953
     H    -6.9713736359   -9.7209786646   -0.4403689353
     H    -7.9050922065  -10.5572215598    1.7032029912
     H    -7.2073836617   -9.5132430342    3.8477603714
     H    -5.5807719773   -7.6334170859    3.8348403249
     H    -2.3857782142   -2.5141241771   -4.4837965996
     H    -3.1940819525   -3.1160059371   -6.7584038704
     H    -1.5043253354    0.5061196217   -8.3342541023
     H    -0.6966158860    1.1140066501   -6.0480740008
