46
-1.5942574652929952e+03 frame 53   xyz file generated by TeraChem
     N     2.2803080099   -0.4441343638   -0.3264979845
     C     0.9825992861   -0.5703181972   -0.6083350649
     N     0.2647987362   -1.6029113409   -0.2100220364
     C    -1.0300806961   -1.4958132414   -0.6176963567
     C    -1.3269745827   -0.3379879728   -1.3401382863
     S     0.1317645221    0.6533449249   -1.5318149222
     N    -2.5260043755    0.0577409570   -1.7977564436
     N    -2.5300637341    1.1593150349   -2.4353461158
     C    -3.7945259354    1.5825634873   -2.8760084207
     C    -5.0086549453    0.9516215091   -2.5562858116
     C    -6.2023701528    1.4635568848   -3.0458739174
     C    -6.2087262076    2.6041175143   -3.8538730698
     C    -5.0061680074    3.2355901472   -4.1683754159
     C    -3.8060586194    2.7303013728   -3.6799517035
     C    -1.9620012641   -2.5676703681   -0.2614142272
     C    -1.6352418438   -3.4362007906    0.7911445161
     C    -2.4739550224   -4.4729059231    1.1733308521
     C    -3.6800095637   -4.6783096829    0.4873629929
     C    -4.0097119000   -3.8252350394   -0.5778070211
     C    -3.1683619798   -2.7908410294   -0.9459558031
     N    -4.5823174505   -5.7018438285    0.7838644027
     C    -4.5438476757   -6.6122713353    1.8047692744
     O    -3.6771995075   -6.6198860044    2.6748322628
     C    -5.6600473179   -7.6081827732    1.8097022268
     C    -6.3406320239   -8.0105774344    0.6542622453
     C    -7.3579870004   -8.9573891738    0.7370002805
     C    -7.7061924639   -9.5057060107    1.9699286358
     C    -7.0244589530   -9.1155573643    3.1225639187
     C    -6.0008570888   -8.1787455760    3.0408635835
     H     2.7521136399   -1.2051853986    0.1425226864
     H     2.8413635048    0.3029351119   -0.7071971277
     H    -5.0002114606    0.0718180380   -1.9206337614
     H    -7.1394930672    0.9736139151   -2.7936984287
     H    -7.1482609693    2.9989436552   -4.2309372378
     H    -5.0030891743    4.1241975824   -4.7939181688
     H    -2.8588886216    3.2094544813   -3.9131319124
     H    -0.7019625313   -3.2851968784    1.3241221549
     H    -2.2073131205   -5.1205339167    1.9969794861
     H    -4.9343837205   -3.9877211430   -1.1266669224
     H    -3.4416928978   -2.1510727864   -1.7769585817
     H    -5.4064785879   -5.7207912094    0.1972208041
     H    -6.0662901278   -7.6180464205   -0.3219574763
     H    -7.8741806011   -9.2715731591   -0.1658675992
     H    -8.5039534679  -10.2410730393    2.0316782807
     H    -7.2904921077   -9.5434774136    4.0852385513
     H    -5.4564327520   -7.8717809949    3.9287896008
