46
-2.0536951327560305e+03 frame 75   xyz file generated by TeraChem
     N     1.3050568002   -0.2270637106   -2.3232082307
     C     0.8246484613   -0.7876596885   -1.2150777432
     N    -0.2014447516   -1.6193484874   -1.2278333860
     C    -0.5002648224   -2.0615652923    0.0221612293
     C     0.3119106185   -1.5458597043    1.0393716585
     S     1.5349620367   -0.4590741480    0.3531390568
     N     0.2056471953   -1.7550775096    2.3578612029
     N     1.0797269341   -1.1682090030    3.0768411331
     C     0.9347831328   -1.3763665774    4.4568976690
     C    -0.1199254391   -2.0798027500    5.0616203569
     C    -0.1536279124   -2.2179929828    6.4416207769
     C     0.8448379776   -1.6663982871    7.2470640819
     C     1.8798549909   -0.9683693451    6.6328314102
     C     1.9393910572   -0.8133016176    5.2550787976
    Cl     3.1396288608   -0.2660159481    7.6187961837
     C    -1.6177523343   -2.9941512996    0.1773660120
     C    -1.7950202511   -3.8000039302    1.3122160889
     C    -2.8658574695   -4.6748711907    1.4229803231
     C    -3.8005236383   -4.7718324803    0.3810621686
     C    -3.6236822106   -3.9822021420   -0.7661479839
     C    -2.5512127223   -3.1154242844   -0.8663214804
     N    -4.9005211776   -5.6300914227    0.3994106347
     C    -5.3617459912   -6.4100630158    1.4253300113
     O    -4.8555026363   -6.4272197905    2.5435624103
     C    -6.5621154137   -7.2414322435    1.1018616061
     C    -6.8816234427   -7.6683949249   -0.1926904940
     C    -8.0102042837   -8.4545050033   -0.4094206765
     C    -8.8285394185   -8.8159413450    0.6591285498
     C    -8.5089011611   -8.4011529326    1.9519007080
     C    -7.3769489175   -7.6253984579    2.1723134461
     H     0.8828188427   -0.4581303736   -3.2121968896
     H     2.1048530434    0.3882183333   -2.3158386648
     H    -0.9022231820   -2.5042536570    4.4416600765
     H    -0.9703182476   -2.7613167310    6.9091515036
     H     0.8163324388   -1.7739860493    8.3263981708
     H     2.7502408249   -0.2676969598    4.7832734482
     H    -1.0771008939   -3.7456659084    2.1225040825
     H    -2.9817412295   -5.2866194863    2.3067926367
     H    -4.3383740974   -4.0546704082   -1.5827309776
     H    -2.4270031692   -2.5114344436   -1.7589822971
     H    -5.4685762488   -5.6069704557   -0.4373679694
     H    -6.2415282172   -7.4242331401   -1.0370547258
     H    -8.2455457471   -8.7904926265   -1.4154490468
     H    -9.7110318636   -9.4259882349    0.4856256866
     H    -9.1420952779   -8.6841658035    2.7882988622
     H    -7.1117376649   -7.3012769083    3.1741235004
