46
-2.0536933642167251e+03 frame 50   xyz file generated by TeraChem
     N     1.1402234033    0.9821318014    0.9871320928
     C     0.3647856232    0.2918171638    0.1540351486
     S     0.2561642395    0.7093034874   -1.5447493704
     C    -0.8730515780   -0.6475233325   -1.7177724736
     C    -1.0709719557   -1.2718038379   -0.4793635154
     N    -0.3640434727   -0.7368968662    0.5500047039
     C    -1.9357654001   -2.4202444492   -0.2057837529
     C    -1.7304581282   -3.1628148370    0.9675907214
     C    -2.5207891250   -4.2549543814    1.2911832200
     C    -3.5660721458   -4.6333802693    0.4353786071
     C    -3.7861673906   -3.8928632465   -0.7371932666
     C    -2.9897699708   -2.8062737067   -1.0510710707
     N    -4.4091072945   -5.7205063911    0.6705080400
     C    -4.4993833710   -6.5067524101    1.7880482691
     O    -3.8372104291   -6.3160182062    2.8041621715
     C    -5.4884389477   -7.6252669868    1.7037160220
     C    -5.8782658851   -8.2232414676    0.4994183875
     C    -6.7852156251   -9.2795979208    0.5056443279
     C    -7.3123610999   -9.7434145276    1.7093205182
     C    -6.9210995740   -9.1562877059    2.9125579117
     C    -6.0078368450   -8.1086234557    2.9096791666
     N    -1.3822436670   -1.0036683238   -2.9024529082
     N    -1.0488073798   -0.2619684805   -3.8856057468
     C    -1.5537199099   -0.6771029584   -5.1216626204
     C    -2.2288008920   -1.8924376819   -5.3354663082
     C    -2.6920979002   -2.2441472117   -6.5931190176
     C    -2.4905261668   -1.3908128656   -7.6798239005
     C    -1.8204809918   -0.1850842782   -7.4980392659
     C    -1.3579235821    0.1619902332   -6.2334576783
    Cl    -0.5276751562    1.6839860717   -6.0482669379
     H     1.6632390973    1.7929174789    0.6913932922
     H     1.1512589609    0.7328580382    1.9668021656
     H    -0.9245837151   -2.8755454401    1.6351094411
     H    -2.3412565945   -4.8125493717    2.1997382488
     H    -4.6023746726   -4.1708562269   -1.3997514943
     H    -3.1891725483   -2.2428597389   -1.9550965176
     H    -5.0899112154   -5.8928221600   -0.0580094268
     H    -5.4560410973   -7.8992290798   -0.4486309121
     H    -7.0738125072   -9.7452273776   -0.4325621847
     H    -8.0224474120  -10.5660753133    1.7104679470
     H    -7.3273823964   -9.5171298683    3.8534824758
     H    -5.6884742669   -7.6479978536    3.8395737208
     H    -2.3692078766   -2.5534386175   -4.4861969690
     H    -3.2081909790   -3.1901352999   -6.7314279176
     H    -2.8486661685   -1.6618583879   -8.6686889910
     H    -1.6542004434    0.4895744947   -8.3319624228
