46
-1.5609957976272358e+03 frame 80   xyz file generated by TeraChem
     N     0.4926336665    0.5493917373   -0.7702702632
     C     1.5985464222    0.3734523413   -0.4497852503
     C     2.9806297471    0.3423425919   -0.1065245944
     C     3.5787216641   -0.4728187249    0.8215505337
     C     3.1531343886   -1.5858520664    1.6198989358
     C     3.9574020893   -1.8890528672    2.7382539263
     C     3.6194129474   -2.9143370550    3.6016020575
     C     2.4574674314   -3.6882939444    3.3294003407
     C     1.6636444716   -3.4607897701    2.2015775359
     C     2.0180355136   -2.4189510220    1.3548496943
     O     1.3642816663   -2.1524907195    0.2133762494
     C     0.1868132810   -2.8815387610   -0.0929075066
     N     2.3082101963   -4.6350913833    4.3030859876
     C     3.3598488588   -4.5224280300    5.2052946131
     C     4.1985268275   -3.4535300259    4.8115229785
     C     5.3210250745   -3.1387246020    5.5790300695
     C     5.5900224673   -3.8951443897    6.7155805751
     C     4.7516683632   -4.9561644578    7.0869167906
     C     3.6256495098   -5.2880948477    6.3382511694
     C     1.2756969421   -5.6443951790    4.3596279523
     C     3.7917185792    1.3856569629   -0.7448271690
     N     5.0768227445    1.5022561760   -0.5960771267
     C     5.5664857946    2.5774205979   -1.3032515202
     C     4.6042263567    3.3084551605   -2.0359739258
     S     3.0381421637    2.5913366282   -1.7941264063
     C     4.9547615714    4.4174795815   -2.8045082415
     C     6.2925393581    4.7931859037   -2.8309052659
     C     7.2599118502    4.0771632129   -2.1081240865
     C     6.9103092874    2.9730987447   -1.3456491156
     H     4.6092686976   -0.1778802381    1.0150810009
     H     4.8412844645   -1.2835783443    2.9233943274
     H     0.8142359511   -4.0940858131    1.9781643542
     H    -0.1995289014   -2.4426492716   -1.0131109551
     H    -0.5570168826   -2.7792483340    0.7047786590
     H     0.4134942317   -3.9413490906   -0.2541320296
     H     5.9734286746   -2.3181014388    5.2917145681
     H     6.4608673121   -3.6636622317    7.3225174345
     H     4.9842471282   -5.5358735984    7.9761546421
     H     2.9852285194   -6.1153187208    6.6291069158
     H     0.3870922225   -5.2863866357    3.8371333376
     H     1.0063576941   -5.8304489841    5.4019596575
     H     1.6097839412   -6.5825188678    3.9027519636
     H     4.2072490794    4.9720004737   -3.3638919084
     H     6.5916783677    5.6545189874   -3.4215075864
     H     8.2984307535    4.3938004314   -2.1478202842
     H     7.6523536996    2.4128221824   -0.7842699241
