31
-9.0888695137706509e+02 frame 58   xyz file generated by TeraChem
     N    -2.9510435364   -0.2351742225    0.5886285906
     C    -1.7888094153   -0.2466233171    0.6206897486
     C    -0.3610883179   -0.2613499089    0.6590517911
     C     0.3499735829   -1.1319348196   -0.1856681993
     C     1.7320830042   -1.1488701534   -0.1511949227
     C     2.4215827818   -0.2969742901    0.7269376665
     C     1.7072447882    0.5676812795    1.5653850045
     C     0.3216886395    0.5911471307    1.5372789148
     N     3.8234769812   -0.2285319701    0.8487136145
     N     4.4510693491   -1.0119958615    0.0870896455
     C     5.8399382621   -0.9699397552    0.1830594357
     C     6.5436789496   -0.1375342870    1.0453795023
     C     7.9367990212   -0.1498729739    1.0871552679
     C     8.6635718131   -0.9992218126    0.2635649179
     C     7.9843780758   -1.8754518585   -0.6419563719
     C     6.5626779249   -1.8558967199   -0.6777162613
     C     5.9318788566   -2.7374415534   -1.5866872266
     C     6.7011081086   -3.5543901736   -2.3763959204
     C     8.1067619264   -3.4908017809   -2.2577115430
     N     8.7364283373   -2.6878040238   -1.4274818707
     O    10.0009640240   -1.0484230483    0.2668608307
     H    -0.1915701421   -1.7869713891   -0.8611604298
     H     2.2928234311   -1.8155730937   -0.7971277682
     H     2.2613033428    1.2172683867    2.2361343444
     H    -0.2336556191    1.2605216916    2.1863516424
     H     5.9881387691    0.5311948900    1.6946636175
     H     8.4671274817    0.5099699794    1.7697077507
     H     4.8488820704   -2.7530445621   -1.6446053041
     H     6.2480605973   -4.2419401760   -3.0839646529
     H     8.7300748889   -4.1335194217   -2.8781040994
     H    10.3475784955   -0.4143508182    0.9164235509
