19
-4.5676892034257423e+02 frame 11   xyz file generated by TeraChem
     N     0.9440680711   -0.0147004560    0.0029404295
     C     2.3255746272   -0.0674326470    0.0267665049
     C     3.0681026281    1.1499162729   -0.0020448669
     C     4.4372810758    1.1459561508   -0.0428840836
     C     5.1632838510   -0.0723333387   -0.0608068595
     C     4.4263818083   -1.2948084656   -0.0317480915
     C     3.0157583278   -1.2694185539    0.0147332928
     C     5.1756206484   -2.4980733855   -0.0462267777
     C     6.5461929543   -2.4384904744   -0.0889390473
     C     7.1744170965   -1.1722527188   -0.1163832580
     N     6.5224752203   -0.0273863872   -0.1027231894
     H     0.5372307606    0.8264836052    0.3918532793
     H     0.4742016742   -0.8464126551    0.3378235120
     H     2.5242756554    2.0919894326    0.0076997302
     H     4.9970617479    2.0772209847   -0.0612569159
     H     2.4700764036   -2.2106663997    0.0396296723
     H     4.6542309522   -3.4525513743   -0.0239316806
     H     7.1503960242   -3.3407922314   -0.1016062614
     H     8.2618803538   -1.1127873022   -0.1506653847
