13
-3.0330635599144796e+02 frame 15   xyz file generated by TeraChem
     N     2.2703044005    0.0208137001    0.1763868150
     C     0.8991844672   -0.0182725392    0.0701977106
     C     0.2094164168   -1.2475410995    0.0575704191
     C    -1.1721956242   -1.2286333279    0.0087909902
     C    -1.8449202741   -0.0030435477   -0.0228983746
     C    -1.0729483290    1.1494551688   -0.0084752928
     N     0.2647264528    1.1625065326    0.0344993064
     H     2.7694012667   -0.7935527314   -0.1559935026
     H     2.6877022026    0.8941392416   -0.1187667741
     H     0.7629096590   -2.1820723098    0.0846868569
     H    -1.7263294461   -2.1638871889   -0.0054487518
     H    -2.9278176094    0.0530186458   -0.0621281116
     H    -1.5502736497    2.1286194875   -0.0366612951
