48
-1.7985538489975038e+03 frame 72   xyz file generated by TeraChem
     N     1.4282749282    0.6688028556    1.0297596790
     C     0.5384662168    0.1029073277    0.2204917912
     S     0.2220259452    0.7442609345   -1.3789450218
     C    -0.9512068796   -0.5728543887   -1.5781055902
     C    -1.0025649378   -1.3568344342   -0.4139686795
     N    -0.1574143770   -0.9663418294    0.5712817127
     C    -1.8492271854   -2.5264552810   -0.1786135748
     C    -1.5325903945   -3.3904499101    0.8817434529
     C    -2.2958956819   -4.5118606534    1.1664693081
     C    -3.4272628942   -4.7972682019    0.3869283587
     C    -3.7596409018   -3.9339912536   -0.6699998916
     C    -2.9883431575   -2.8204693384   -0.9477120567
     N    -4.2581812864   -5.8984479738    0.5925085235
     C    -4.1753576204   -6.8690760682    1.5549321435
     O    -3.3313865800   -6.8664362593    2.4465348580
     C    -5.2054319093   -7.9496007568    1.4638486164
     C    -5.8412879297   -8.3157882162    0.2713582681
     C    -6.7714962629   -9.3516011791    0.2655481149
     C    -7.0773250880  -10.0254436800    1.4464062892
     C    -6.4408947694   -9.6698188107    2.6354773960
     C    -5.5038980687   -8.6433220484    2.6417874864
     N    -1.6222163393   -0.7626096747   -2.7155203908
     N    -1.4053364768    0.1025704199   -3.6305961886
     C    -2.0456564026   -0.1775655273   -4.8381710878
     C    -2.4815701421   -1.4637419544   -5.2004334043
     C    -3.0245773840   -1.7137201065   -6.4512413862
     C    -3.1273022567   -0.6934223755   -7.4006766211
     C    -2.6833366509    0.5814943919   -7.0816515841
     C    -2.1676802651    0.8332480547   -5.8132871443
     N    -1.7850439654    2.2061191435   -5.5271729453
     O    -1.9852429355    2.6504394926   -4.4071729523
     O    -1.3015406944    2.8583774551   -6.4455965212
     H     1.9312283506    1.5070080211    0.7784546799
     H     1.5618189869    0.2870232041    1.9565785799
     H    -0.6608308308   -3.1740469816    1.4903146396
     H    -2.0292496079   -5.1649113580    1.9855087596
     H    -4.6404143782   -4.1416251244   -1.2729149927
     H    -3.2711971501   -2.1667481523   -1.7642351656
     H    -5.0527237679   -5.9496638140   -0.0316231536
     H    -5.5966593775   -7.8267619408   -0.6683776091
     H    -7.2519540415   -9.6366374869   -0.6662290978
     H    -7.8064102783  -10.8312658987    1.4387756980
     H    -6.6742804442  -10.1948070498    3.5577194676
     H    -4.9938008023   -8.3617415760    3.5580218479
     H    -2.3599456355   -2.2641376240   -4.4779986116
     H    -3.3570902446   -2.7184006475   -6.6972735124
     H    -3.5461656030   -0.8912502368   -8.3822356673
     H    -2.7503016161    1.3968342196   -7.7935816055
