37
-1.1534196093462429e+03 frame 21   xyz file generated by TeraChem
     N     0.9704493326   -0.1278887713    3.1543771727
     C     0.3629716783   -0.4458811692    2.2152276280
     C    -0.3835546327   -0.8336201538    1.0657231072
     C    -0.0017595416   -1.8313899252    0.2097844229
     C     1.1731547499   -2.6361575359    0.2465995432
     C     2.3332538183   -2.4971096307    1.0105509770
     N     3.1906795026   -3.4389981092    0.5933386405
     N     2.6861932637   -4.2043901207   -0.4000453067
     C     1.4685529541   -3.7383851762   -0.6239835190
     C     0.6306791424   -4.3654204925   -1.6533643859
     C    -0.7420050347   -4.5685729972   -1.4515918180
     C    -1.5161478206   -5.1744207906   -2.4314595356
     C    -0.9008955586   -5.5830919215   -3.6089442343
     C     0.4616141897   -5.4080336739   -3.8330896949
     C     1.2229465959   -4.7969602651   -2.8499167067
     N    -1.7068609046   -6.2246757193   -4.6396671843
     O    -2.9006692108   -6.3780109669   -4.4235370414
     O    -1.1487433901   -6.5776104066   -5.6687712560
     C     4.5044715577   -3.6836794873    1.0739560551
     C     4.8290918375   -3.3740631150    2.3943248265
     C     6.1260487371   -3.6036984103    2.8428268767
     C     7.0817968554   -4.1509590330    1.9889028052
     C     6.7382358551   -4.4670221788    0.6751577911
     C     5.4497599824   -4.2319939256    0.2081146090
     C    -1.5974803951   -0.1208346746    0.8360186784
     N    -2.5866336575    0.4625580748    0.6551088660
     H    -0.6852286608   -2.0271238421   -0.6127399211
     H     2.6092965610   -1.7757783569    1.7649401763
     H    -1.2067663359   -4.2861208583   -0.5120515728
     H    -2.5764881343   -5.3415818089   -2.2836420993
     H     0.9070859963   -5.7413812754   -4.7628716522
     H     2.2848796844   -4.6394203939   -3.0078811766
     H     4.0778185059   -2.9789573519    3.0715111064
     H     6.3826277197   -3.3659487691    3.8711225037
     H     8.0907019771   -4.3342785814    2.3471034818
     H     7.4783114744   -4.8930488956    0.0038063993
     H     5.1737613202   -4.4628994039   -0.8149686645
