24
-6.2626607954767007e+02 frame 48   xyz file generated by TeraChem
     N    -1.1138825813   -1.1096784792   -0.6303806152
     C    -0.6551040696   -0.7699628845    0.5775539746
     C     0.6537029036   -0.3744696080    0.8314965987
     C     1.5603901902   -0.3258586097   -0.2319364665
     C     1.0884511933   -0.6778172665   -1.5012957645
     C    -0.2393517501   -1.0565920196   -1.6424119586
     C     2.9565455811    0.0785871972   -0.0669221674
     N     3.7887310832    0.2885064054   -1.0688535964
     C     4.9781998945    0.6492977650   -0.4779055067
     C     4.8427110894    0.6509447016    0.9295567765
     N     3.5400240908    0.2854772660    1.1532059982
     C     5.8934926463    0.9789520822    1.7867797146
     C     7.1002803912    1.3126853393    1.1874095361
     C     7.2547912163    1.3187043660   -0.2139738007
     C     6.2064060138    0.9903622142   -1.0600298624
     H    -1.3723029637   -0.8117993908    1.3954099620
     H     0.9361880295   -0.1025465790    1.8439361481
     H     1.7542869693   -0.6557526264   -2.3572392189
     H    -0.6212264211   -1.3345476195   -2.6231806002
     H     3.1113437719    0.1534993483    2.0588840313
     H     5.7738677214    0.9749198562    2.8661469486
     H     7.9477040957    1.5768243881    1.8141688098
     H     8.2193303245    1.5872563512   -0.6361953553
     H     6.3242708017    0.9945602726   -2.1400062964
