97
-2.6696528077269204e+03 frame 58   xyz file generated by TeraChem
     O     1.8168405601    3.1774205077    3.0592282076
     C     3.0980022897    2.8925252811    2.7757843977
     O     3.9612416413    3.1832293222    3.5699851377
     C     3.3310223407    2.2311661013    1.4296134716
     C     4.7596472870    1.8332818435    1.1926302337
     C     5.1491670293    0.4950333225    1.2641010118
     C     6.4755367750    0.1259470829    1.0555202434
     C     7.4487690292    1.0904573568    0.7737309781
     C     7.0559029828    2.4332630611    0.6996074978
     C     5.7301500997    2.7971977439    0.9049497910
     C     8.8692173813    0.6995128208    0.5468619280
     C     9.1300628749   -0.0652891737   -0.5991686143
     C     8.1868998128   -0.4451198915   -1.6043367871
     C     8.8539248267   -1.1529651531   -2.5650622786
     C    10.2295562295   -1.2308040001   -2.1828808150
     C    11.2655702889   -1.8418629568   -2.9043674655
     C    10.8755543598   -2.5662035309   -4.1460857207
     C    11.3228603094   -2.1315651049   -5.3984962972
     C    10.9595205109   -2.8109967326   -6.5581369360
     C    10.1428109310   -3.9456076026   -6.4979968797
     C     9.6941943009   -4.3788465123   -5.2450439113
     C    10.0514800142   -3.6981587598   -4.0871072125
     C     9.7798151357   -4.7028256372   -7.7469862180
     C    10.7013318599   -5.8595973184   -8.1062959605
     O    10.3775374816   -6.7347231193   -8.8768714179
     O    11.9250811124   -5.8658471621   -7.5647467477
     C    12.6279573477   -1.8122026095   -2.5488391843
     N    13.1609706539   -1.1503030887   -1.4841342367
     C    14.4976383270   -1.4057779186   -1.5375511703
     C    15.4710495600   -0.9373061560   -0.6362496886
     C    15.2134390494   -0.1674296562    0.5025620054
     N    13.9899393127    0.2748914812    0.9312943962
     C    14.1141777772    0.9772273946    2.1001766416
     C    13.0750944968    1.5551889883    2.8407270664
     C    11.7086471433    1.5040185718    2.5004908977
     N    11.1790121263    0.8974482633    1.4016759027
     C     9.8378941693    1.1305541933    1.4743038689
     C     9.5038019022    1.8977957666    2.6628296533
     C    10.6737881204    2.1405994221    3.2978918786
     C    13.4717361455    2.2806040348    4.0815394074
     C    13.1212953149    1.7910104534    5.3438044552
     C    13.5014826580    2.4692571911    6.4995344838
     C    14.2433942670    3.6528381231    6.4243416288
     C    14.5924048642    4.1423624464    5.1603283521
     C    14.2123204358    3.4675455165    4.0064239103
     C    14.6898006152    4.3705930156    7.6706955734
     C    16.0985047541    4.0398628615    8.1423250424
     O    16.7305933806    4.7615607555    8.8798449258
     O    16.6232968650    2.8769902535    7.7372703073
     C    15.5066841202    0.9782436984    2.4319213286
     C    16.1743998110    0.2917375043    1.4570036814
     C    16.8983703021   -1.2901234125   -0.8945762101
     C    17.5289232738   -2.3177497407   -0.1888599265
     C    18.8596623036   -2.6532943152   -0.4283402918
     C    19.5773285434   -1.9478088069   -1.3918667328
     C    18.9726614293   -0.9168229140   -2.1041413841
     C    17.6388956445   -0.5835677037   -1.8579828779
     O    17.0094134003    0.4211549748   -2.5170645219
     C    14.8252045795   -2.2646306338   -2.6617382137
     C    13.6564079547   -2.5235795395   -3.2923476217
     N    10.3448709192   -0.5605924731   -0.9938268652
     H     1.2296943001    2.8869358370    2.3409866308
     H     2.9902031699    2.9421324116    0.6636354303
     H     2.6660911031    1.3613544385    1.3559201600
     H     4.4081072514   -0.2691815038    1.4872970120
     H     6.7611297216   -0.9208131604    1.1202145957
     H     7.7957308991    3.1950731891    0.4679437521
     H     5.4446262504    3.8443475253    0.8364888461
     H     7.1373653458   -0.1878456984   -1.5918207914
     H     8.4431437521   -1.5720990435   -3.4726310735
     H    11.9481308452   -1.2454491102   -5.4667937085
     H    11.3045749764   -2.4478974516   -7.5239370857
     H     9.0591421388   -5.2591960368   -5.1773635357
     H     9.6988780973   -4.0532112127   -3.1223357227
     H     9.7890131130   -4.0329164564   -8.6167213269
     H     8.7708594893   -5.1206632370   -7.6825114399
     H    12.0258297278   -5.1108393260   -6.9562995304
     H    13.1141639219    0.1069419735    0.4470832083
     H     8.5107950179    2.2036508730    2.9626095406
     H    10.8286231387    2.6937665962    4.2142938660
     H    12.5499777490    0.8698850274    5.4230074236
     H    13.2158428667    2.0748340205    7.4723655426
     H    15.1620836244    5.0654595949    5.0803465357
     H    14.4846173568    3.8670840525    3.0330437130
     H    14.0261759340    4.1288587413    8.5112928214
     H    14.6531684233    5.4563108107    7.5423470023
     H    16.0049555676    2.4241051917    7.1351587453
     H    15.9286142844    1.4431598050    3.3117456298
     H    17.2365415358    0.1000881893    1.3972479764
     H    16.9543019618   -2.8617186043    0.5568082861
     H    19.3288710837   -3.4582121007    0.1297427422
     H    20.6160211758   -2.1963265418   -1.5933782958
     H    19.5317166309   -0.3603817779   -2.8540153789
     H    17.6259717503    0.8246309196   -3.1478537224
     H    15.8135600515   -2.6262575394   -2.9130061642
     H    13.4949165844   -3.1434746628   -4.1637813298
     H    11.2145857470   -0.4210211946   -0.4900841971
