52
-1.8056216208337132e+03 frame 49   xyz file generated by TeraChem
     O     0.8624311455   -1.9077306091   -1.5298409094
     C     0.0115639060   -2.2906892396   -0.7527609109
     O     0.4368541719   -2.6055713196    0.5124832014
     C    -0.3919716696   -3.0417843843    1.4999825365
     C     0.1726298490   -3.3255515111    2.7395665373
     C    -0.6571412636   -3.7720340925    3.7596281776
     C    -2.0339788453   -3.9341697930    3.5484346378
     C    -2.5828280732   -3.6493602117    2.3105170457
     C    -1.7641697039   -3.1965595304    1.2598098361
     C    -2.2456230353   -2.8873157752   -0.0478740080
     C    -1.4137570526   -2.4518071306   -1.0361870839
     C    -1.9343914751   -2.1519137153   -2.3733447543
     C    -1.2236738054   -1.7006294460   -3.4626762391
     S    -2.2681825922   -1.5011887252   -4.8075297135
     C    -3.6028335756   -2.0412629356   -3.8168335488
     N    -3.2769259985   -2.3391560559   -2.5899954461
     N    -4.8402320026   -2.0887852074   -4.4361711011
     N    -5.7671886680   -2.4991291107   -3.6551046642
     C    -7.0035753473   -2.5760502338   -4.1964469161
     C    -7.4981586778   -2.3603517244   -5.5369657336
     C    -6.9283710279   -1.9677031742   -6.7536156396
     C    -7.7476102705   -1.8802847125   -7.8735779709
     C    -9.1171435212   -2.1768255696   -7.7993027859
     C    -9.7042104019   -2.5728897471   -6.6022966019
     C    -8.8760715402   -2.6588480979   -5.4863211348
     N    -9.2085375297   -3.0287662597   -4.1864919318
     C    -8.0995499337   -2.9906619456   -3.4061540183
     C    -8.0833475998   -3.3616423027   -1.9894861176
     C    -8.6868388890   -4.5502153339   -1.5508558326
     C    -8.6340804561   -4.9114238581   -0.2086372088
     C    -7.9804521708   -4.0933342072    0.7115684395
     C    -7.3756492860   -2.9121343788    0.2835529858
     C    -7.4235811265   -2.5463344092   -1.0573275169
     C   -10.5717092657   -3.2984667947   -3.7720872330
     H     1.2400927902   -3.1943237343    2.8861791089
     H    -0.2296300657   -3.9975622988    4.7324169971
     H    -2.6679021231   -4.2837700524    4.3576911391
     H    -3.6476565749   -3.7708905757    2.1290784332
     H    -3.3041488505   -3.0050830730   -0.2632038392
     H    -0.1677753039   -1.4870379597   -3.5233694026
     H    -5.8711709656   -1.7377746756   -6.8138627668
     H    -7.3200370207   -1.5766452620   -8.8252748745
     H    -9.7313368094   -2.1009545602   -8.6922376665
     H   -10.7620477427   -2.8116741470   -6.5485390415
     H    -9.1728804538   -5.2062576669   -2.2678213537
     H    -9.0987167497   -5.8379393660    0.1171010370
     H    -7.9417955554   -4.3761963211    1.7600840867
     H    -6.8685462029   -2.2689919745    0.9977176460
     H    -6.9595993363   -1.6235989584   -1.3893056167
     H   -11.2325507699   -2.5471544241   -4.2115715302
     H   -10.6400988647   -3.2400232391   -2.6865241719
     H   -10.8874715732   -4.2926885484   -4.1028282475
