45
-1.6141012858528316e+03 frame 49   xyz file generated by TeraChem
     O     0.2075957338   -2.3410160318    0.6907998182
     C    -0.2787365418   -1.3410608564    0.2031855564
     O     0.3941518663   -0.1672118533    0.4282834076
     C    -0.0195670494    1.0417529180   -0.0393218683
     C     0.7572717196    2.1545416500    0.2674528898
     C     0.3516409027    3.3964483387   -0.2029105015
     C    -0.8142029616    3.5296219340   -0.9707059052
     C    -1.5777762565    2.4147138309   -1.2687638681
     C    -1.1893220100    1.1447481327   -0.8045320815
     C    -1.9159590266   -0.0561192597   -1.0671291345
     C    -1.5013526590   -1.2660893614   -0.5955636754
     C    -2.2649127949   -2.4847623301   -0.8798198703
     C    -1.9539848539   -3.7669455391   -0.4859870761
     S    -3.1419825423   -4.8635769787   -1.0522802435
     C    -3.9868114369   -3.5243134547   -1.7918137527
     N    -3.4188503679   -2.3635667942   -1.6149656121
     N    -5.1540252114   -3.8489406655   -2.4611841591
     N    -5.6769021437   -2.8544220911   -3.0695497988
     C    -6.8499113709   -3.0488589140   -3.7225456861
     C    -7.7369123901   -4.1490125433   -3.7826464778
     C    -7.6678639324   -5.4701722556   -3.1088802393
     N    -8.7802030105   -3.8102631524   -4.5777940844
     C    -8.6329641531   -2.5072419680   -5.0449138208
     C    -7.4298160222   -1.9973423335   -4.5250889120
     C    -7.0341870089   -0.6969227089   -4.8478768604
     C    -7.8566650662    0.0587212387   -5.6745901882
     C    -9.0576768269   -0.4658390917   -6.1807963115
     C    -9.4665945104   -1.7593921495   -5.8737325141
     C    -9.9276121200   -4.6438224645   -4.8754488523
     H     1.6569937397    2.0336599048    0.8625908350
     H     0.9487057527    4.2737021717    0.0292436979
     H    -1.1163923183    4.5084919755   -1.3305494572
     H    -2.4839379681    2.5007505786   -1.8627089775
     H    -2.8248242613   -0.0048156063   -1.6603676232
     H    -1.1053338308   -4.0937383855    0.0945902260
     H    -6.8876667460   -5.4528218013   -2.3493531495
     H    -7.4205236633   -6.2622123233   -3.8283903965
     H    -8.6264542533   -5.7300721697   -2.6470462484
     H    -6.1059223850   -0.2911037767   -4.4558087096
     H    -7.5686283947    1.0737186060   -5.9348796529
     H    -9.6811939420    0.1492599166   -6.8236336972
     H   -10.3971815257   -2.1605619387   -6.2637852646
     H    -9.6617119205   -5.6941477327   -4.7562476528
     H   -10.2308069933   -4.4769032723   -5.9110088827
     H   -10.7644523152   -4.4022938314   -4.2120336951
