19
-5.5177871882076488e+02 frame 34   xyz file generated by TeraChem
     O     0.9713010827    0.0352984943    0.3351580412
     C     2.1730700505   -0.0367153920    0.1638874216
     O     2.8659053677    1.1097054272   -0.0454825680
     C     4.2224949436    1.1394272742   -0.2331695264
     C     4.8092870514    2.3822018493   -0.4417528316
     C     6.1842352230    2.4489848242   -0.6309372550
     C     6.9566230464    1.2810236460   -0.6101525382
     C     6.3564839476    0.0493823183   -0.4012919814
     C     4.9664692032   -0.0484947206   -0.2076167704
     C     4.2743599106   -1.2837934560    0.0125179501
     C     2.9232460333   -1.3001671157    0.1833544990
     N     2.1393081436   -2.4166689566    0.3273260042
     H     4.1861984701    3.2714091505   -0.4518609399
     H     6.6563786934    3.4133065866   -0.7945279516
     H     8.0311096514    1.3396120121   -0.7587593247
     H     6.9510733268   -0.8605285686   -0.3844870443
     H     4.8415575256   -2.2113313131    0.0369146399
     H     2.6051842154   -3.2472982733    0.6685537600
     H     1.2447336375   -2.2434871217    0.7685464342
