49
-1.7663698001288867e+03 frame 45   xyz file generated by TeraChem
     O    -0.9035748577    0.4719606091    1.1387974462
     C    -1.9302597962    0.6558705583    1.7608803899
     O    -1.7947428146    1.2009355457    3.0115323803
     C    -2.8436550026    1.4639842602    3.8377019017
     C    -2.5629201023    2.0158584575    5.0837937470
     C    -3.6202102342    2.2882341297    5.9417723236
     C    -4.9424973486    2.0149282959    5.5634332553
     C    -5.2078728234    1.4673193816    4.3204656151
     C    -4.1550516604    1.1815655704    3.4323824132
     C    -4.3393952501    0.6183334489    2.1333454534
     C    -3.2877442856    0.3556581240    1.3066856993
     C    -3.5026151730   -0.2177876315   -0.0247430178
     C    -2.5495964343   -0.5124989781   -0.9702498746
     S    -3.2710470992   -1.1617878832   -2.3885439997
     C    -4.8410577630   -0.9909181966   -1.6052519726
     N    -4.7954322665   -0.4977582368   -0.4011663464
     N    -6.0303998661   -1.3462261052   -2.2030742371
     N    -5.8673497264   -1.7766943599   -3.3930808780
     C    -6.9831534994   -2.1721344689   -4.0475789285
     C    -6.9181057989   -2.6486170505   -5.3772587472
     N    -8.1599515619   -3.0467867251   -5.7345464918
     C    -9.0624806613   -2.8416707490   -4.7060561064
     C    -8.3602290041   -2.2866860537   -3.6144623558
     C    -9.0572361260   -1.9948510487   -2.4355309205
     C   -10.4221049834   -2.2557199459   -2.3900480182
     C   -11.0998796541   -2.8005501569   -3.4924859785
     C   -10.4285519714   -3.1042543947   -4.6711657448
     C    -5.7849765324   -2.7590826573   -6.2900190035
     C    -5.7321605536   -3.8087410375   -7.2216467857
     C    -4.6626869560   -3.9130173915   -8.1033386874
     C    -3.6326847646   -2.9737835311   -8.0695967556
     C    -3.6788787352   -1.9267451594   -7.1499541215
     C    -4.7461683047   -1.8147671247   -6.2664506971
     H    -1.5334776124    2.2206156548    5.3605865418
     H    -3.4154864886    2.7186657919    6.9178756351
     H    -5.7574019056    2.2337529876    6.2468152286
     H    -6.2272223364    1.2503478228    4.0119199224
     H    -5.3470115555    0.3942635647    1.7939107926
     H    -1.4815098676   -0.3772250148   -0.8927776822
     H    -8.4123349908   -3.3726324782   -6.6586383019
     H    -8.5398127713   -1.5718380616   -1.5825384320
     H   -10.9773353555   -2.0321589177   -1.4831683993
     H   -12.1674064842   -2.9904555438   -3.4243374651
     H   -10.9431219871   -3.5293915926   -5.5280660184
     H    -6.5148330234   -4.5627719024   -7.2360519707
     H    -4.6300314210   -4.7347663835   -8.8132397604
     H    -2.7974594407   -3.0567370878   -8.7596704681
     H    -2.8839471599   -1.1864906224   -7.1260000025
     H    -4.7903638901   -0.9899152162   -5.5642155477
