35
-1.3291557116821075e+03 frame 59   xyz file generated by TeraChem
     O     2.5642754928   -0.0461797549    0.3741892598
     C     1.2196839713   -0.0037016771    0.4202532210
     C     0.4548087069   -1.1720377343    0.3177836775
     C    -0.9269063569   -1.1409487280    0.3665912305
     C    -1.6082815023    0.0751427473    0.5256353245
     C    -0.8698609584    1.2410247825    0.6355291209
     C     0.5420143599    1.2301268210    0.5802398899
     N     1.0870287318    2.5051014379    0.7037743401
     N     2.3438202800    2.6174949246    0.6276548977
     C     2.7863024673    3.9296122686    0.7668050226
     N     2.1057970392    5.0256783808    0.9883410240
     C     2.9466872613    6.0952898568    1.0553875126
     C     4.2811159700    5.8312909393    0.8864369069
     S     4.5080805228    4.1539383352    0.6303467185
     O    -2.9641725326   -0.0031587517    0.5628660293
     C    -3.6880358598    1.2155260043    0.7001740448
     C    -5.1567040123    0.9062336091    0.6309517304
     C    -6.0252401413    1.3598506544    1.6245561770
     C    -7.3930364439    1.1010332922    1.5410215847
     C    -7.9008720072    0.3752877711    0.4662754056
     C    -7.0368840635   -0.0869918534   -0.5274822361
     C    -5.6738592486    0.1809730519   -0.4474952575
     H     2.8402000994   -0.9724500984    0.2742555978
     H     0.9668444002   -2.1242900756    0.1969452097
     H    -1.5008145442   -2.0592728048    0.2830617458
     H    -1.3361731999    2.2107590112    0.7671676670
     H     2.5381654333    7.0841697061    1.2352784283
     H     5.1126821871    6.5234834062    0.9010980994
     H    -3.3993076320    1.8990309145   -0.1114423005
     H    -3.4375871653    1.6985903451    1.6536260068
     H    -5.6285430843    1.9191091570    2.4690592440
     H    -8.0594979683    1.4607329238    2.3206449279
     H    -8.9660075949    0.1686368236    0.4017457559
     H    -7.4280447672   -0.6540059557   -1.3683268785
     H    -5.0006131087   -0.1772147230   -1.2223300183
