17
-3.0953645760538967e+02 frame 14   xyz file generated by TeraChem
     O     2.1341228465   -0.0066777118    0.3236799321
     C     0.9823679344   -0.0010834347   -0.0783923082
     C     0.2242965227    1.2786334878   -0.3423214527
     C    -1.1656381298    1.2615370745    0.3106529532
     C    -1.9467194784    0.0075850582   -0.0738465989
     C    -1.1727481069   -1.2545557784    0.2979830076
     C     0.2165852262   -1.2732261606   -0.3562324788
     H     0.1025181641    1.3623282986   -1.4329290710
     H     0.8284330914    2.1267526338   -0.0058877481
     H    -1.7135051696    2.1654906137    0.0210866284
     H    -1.0507648985    1.2963981068    1.4027173756
     H    -2.1402972744    0.0135403016   -1.1563274467
     H    -2.9242847033    0.0078982445    0.4230982344
     H    -1.7260929138   -2.1524487440    0.0000959659
     H    -1.0573143143   -1.3006221989    1.3895747038
     H     0.0933622271   -1.3438827929   -1.4475947478
     H     0.8155990759   -2.1288469057   -0.0297869060
