42
-1.7402143594570152e+03 frame 118   xyz file generated by TeraChem
     O     1.4505627510   -0.8053012705   -1.3405168705
     C     1.7297160100   -1.1736961997   -0.2178462868
     C     1.0851369982   -2.4027184808    0.3902929391
     N     0.8300422436   -3.3750675973   -0.6639472442
     N    -0.3928787569   -3.5445423405   -0.8356885503
     C    -0.7158785267   -4.4687282363   -1.8371995645
     S    -2.4071423499   -4.7199182347   -2.1210920617
     C    -2.0019174747   -5.8505052803   -3.3284047465
     C    -0.6277008305   -5.9687282493   -3.4401083273
     N     0.0827192582   -5.1746391671   -2.5840558205
     C     0.1145618126   -6.8393985754   -4.3570348936
     C     1.4772770036   -6.8452808957   -4.3635343440
     C     2.2200499223   -7.6894328622   -5.2422527260
     C     3.6255867451   -7.7309873417   -5.2849736113
     C     4.2701262063   -8.5812691685   -6.1654284600
     C     3.5216285338   -9.4052299238   -7.0186409151
     C     2.1334110727   -9.3830434014   -6.9966181961
     C     1.4972940816   -8.5232660534   -6.1068888280
     O     0.1370925753   -8.5133197437   -6.0985584060
     C    -0.6124084936   -7.7154417791   -5.2736758530
     O    -1.8182685428   -7.8088515610   -5.3781211540
     C     1.8726033993   -3.0741120828    1.4959438023
     O     1.7116252484   -4.2478601194    1.7608768509
     N     2.7038227525   -2.2449786522    2.2152275565
     C     3.0543054103   -0.9533532226    1.8312175852
     O     3.7957996294   -0.2794032089    2.5179282876
     N     2.5676619710   -0.4720888122    0.6187983315
     C     3.0722471936    0.8311124943    0.1934591697
     C     3.3503518602   -2.7525083893    3.4224241309
     H     0.1414740478   -2.0575733137    0.8464615145
     H    -2.7566433386   -6.3734933430   -3.8960616647
     H     2.0153210903   -6.1924971073   -3.6816277348
     H     4.1891791965   -7.0857731318   -4.6162036636
     H     5.3549355413   -8.6124672369   -6.1973360111
     H     4.0313802882  -10.0717266259   -7.7084143910
     H     1.5405937948  -10.0145026979   -7.6507955502
     H     2.9208437813    1.5549978558    0.9946856487
     H     2.5155381930    1.1252152838   -0.6939277914
     H     4.1372705051    0.7662539822   -0.0418854573
     H     2.9542216294   -3.7479304167    3.6122988766
     H     3.1276649260   -2.0905582976    4.2605724457
     H     4.4314467683   -2.8035615734    3.2764096547
