92
-2.1442128644988916e+03 frame 107   xyz file generated by TeraChem
     O     0.2570987038   -0.4332757230   -0.5869258419
     C     1.3821346326   -0.0849065768   -0.9480460205
     N     1.5970447538    0.9560198238   -1.8313187648
     C     0.6410492074    1.8795545247   -2.2670269903
     C    -0.4514401734    2.2265160536   -1.4615980290
     C    -1.3505696180    3.2006491961   -1.8631904308
     C    -1.1869951465    3.8922708975   -3.0695525781
     C    -0.0854226843    3.5505880462   -3.9028591464
     C     0.8230253010    2.5205625651   -3.5169411363
     C     1.8842684669    2.1811396627   -4.4223063775
     C     2.0608411210    2.8451999624   -5.5958747337
     C     1.1902412078    3.9124531887   -5.9882861120
     C     0.1030781587    4.2479712950   -5.1326040004
     C    -0.7963461455    5.2874219095   -5.5120396844
     C    -1.8948976105    5.6051047298   -4.6465307999
     C    -2.0824819332    4.9323633404   -3.4802412110
     C    -0.5822060726    5.9674594703   -6.7193362086
     C     0.4883071675    5.6358606502   -7.5444052395
     C     1.3660997633    4.6172436002   -7.1872394680
     N     2.4976240417   -0.7271016511   -0.5028644876
     C     3.8989305341   -0.3699866554   -0.6276017421
     C     4.7284992663   -1.2853734580   -1.5373154051
     C     6.1769363805   -0.7712432786   -1.5506362749
     C     7.0523082460   -1.6703304312   -2.4304453255
     C     6.5059148453   -1.6723688127   -3.8628069050
     C     5.0663344920   -2.1991876397   -3.8574030655
     C     4.1975815749   -1.2926245960   -2.9780213009
     C     5.0486122429   -3.6257271292   -3.2983591117
     C     5.5964132200   -3.6460463632   -1.8621792467
     C     4.7246497812   -2.7245213210   -0.9967576595
     C     7.0331243114   -3.0996123139   -1.8771234804
     C     5.5550179396   -5.0921657244   -1.3535593981
     N     6.0695945946   -5.2974716197   -0.0166161068
     C     5.2611637638   -5.4222058209    1.0693939814
     O     4.0327312691   -5.3915724321    1.0060822120
     N     5.9557169322   -5.5970274515    2.2562705396
     C     5.4054206523   -5.7072854747    3.5355307237
     C     4.1428927539   -6.2798877414    3.7381377827
     C     3.6233163851   -6.4212186033    5.0149104753
     C     4.3451765213   -6.0230336428    6.1462878040
     C     5.6321659422   -5.4439768622    5.9604488681
     C     6.1641213704   -5.2663804806    4.6489961051
     C     7.4472164231   -4.6355178799    4.5205170456
     C     8.1636574632   -4.2458946465    5.6088584693
     C     7.6668267464   -4.4370206546    6.9377059084
     C     6.3834553166   -5.0315997311    7.1008204775
     C     5.8514581795   -5.2075416486    8.4122074514
     C     4.5523907492   -5.7970794895    8.5607983995
     C     3.8326457638   -6.1839302154    7.4743781794
     C     6.6113198310   -4.7977290350    9.5168848862
     C     7.8677694718   -4.2242095960    9.3453138439
     C     8.3929883200   -4.0427486141    8.0701530745
     H     2.5268623950    1.0621636957   -2.2064698293
     H    -0.5826597274    1.7241778636   -0.5119937464
     H    -2.1876915543    3.4543425115   -1.2171259205
     H     2.5485909894    1.3551552445   -4.1878890061
     H     2.8688317786    2.5640807460   -6.2670525957
     H    -2.5760860832    6.3977601888   -4.9465395725
     H    -2.9184077031    5.1758566372   -2.8283632186
     H    -1.2683247379    6.7614482252   -7.0048819034
     H     0.6375025122    6.1749059234   -8.4762521377
     H     2.1986754253    4.3560828687   -7.8360728974
     H     2.2711445994   -1.4827864807    0.1285488786
     H     4.3390406459   -0.3875128157    0.3786957236
     H     3.9807571493    0.6674699695   -0.9713906298
     H     6.5711651764   -0.7503192763   -0.5240006915
     H     6.1968442543    0.2614056804   -1.9280686815
     H     8.0824115659   -1.2904117360   -2.4274143307
     H     7.1356807499   -2.3044275613   -4.5041075247
     H     6.5335926458   -0.6562297930   -4.2801726399
     H     4.6686017521   -2.2032074170   -4.8807094652
     H     3.1548391625   -1.6383022169   -2.9893231144
     H     4.2114113379   -0.2690058065   -3.3825588409
     H     5.6571895180   -4.2846308227   -3.9346110968
     H     4.0237605462   -4.0249637299   -3.3065266250
     H     5.0950044356   -2.7220476600    0.0384741937
     H     3.6976256967   -3.1150446741   -0.9735333431
     H     7.6682112985   -3.7508139771   -2.4956560407
     H     7.4478614515   -3.1123165762   -0.8593968403
     H     6.1337086885   -5.7250325725   -2.0388709337
     H     4.5210040971   -5.4516624780   -1.3618792688
     H     7.0719953706   -5.3276604759    0.1029527040
     H     6.9624923540   -5.5391034592    2.2058457307
     H     3.5757787964   -6.6096301285    2.8777553927
     H     2.6414251803   -6.8702964625    5.1451305890
     H     7.8583967460   -4.4341354508    3.5359599773
     H     9.1307561764   -3.7651835332    5.4819185742
     H     4.1550109908   -5.9259325248    9.5647445004
     H     2.8473439652   -6.6291030181    7.5933690603
     H     6.2035493370   -4.9326564631   10.5159854880
     H     8.4412990934   -3.9134636825   10.2146119291
     H     9.3724501321   -3.5892414398    7.9380232191
