88
-1.9919003443755391e+03 frame 46   xyz file generated by TeraChem
     O     1.5058781511    1.2669665680   -1.7391087345
     C     1.8319042170    0.1330815668   -1.3864498446
     N     0.9240833128   -0.8141155453   -0.9426373696
     C    -0.4591944854   -0.6689058193   -0.8192063133
     C    -1.1924729529    0.2739583011   -1.6100801881
     C    -2.5509695321    0.3521632535   -1.5010627582
     C    -3.2845943476   -0.4933202799   -0.6168199796
     C    -2.5495888855   -1.4487749487    0.1699795002
     C    -1.1349721058   -1.5044226201    0.0411767752
     C    -3.2504282099   -2.2867133871    1.0451017700
     C    -4.6414008475   -2.2160517473    1.1692005858
     C    -5.3749133082   -1.2627131025    0.3762762650
     C    -4.6741902574   -0.4245244085   -0.4974676660
     C    -6.7943148252   -1.2035289265    0.5099853362
     C    -7.4527092420   -2.0334806109    1.3759433118
     C    -6.7283196774   -2.9746423213    2.1616531682
     C    -5.3667457040   -3.0631520126    2.0609875087
     N     3.1170916744   -0.3103429250   -1.3900848079
     C     4.2299495435    0.5259359757   -1.7854607980
     C     4.8059743567    0.2386832487   -3.1775179627
     C     6.0006306302    1.1794736254   -3.4029906367
     C     6.6309164578    0.9260703714   -4.7763293533
     C     5.5848157019    1.1791006212   -5.8690032756
     C     4.3934225189    0.2381083447   -5.6600466140
     C     3.7690698535    0.4940067270   -4.2831452717
     C     4.8767590276   -1.2137358399   -5.7402300068
     C     5.9292179125   -1.4907764488   -4.6532713997
     C     5.2923695759   -1.2158952124   -3.2831825205
     C     7.1097046976   -0.5283457194   -4.8549941205
     C     6.3742342287   -2.9531109699   -4.7839682992
     N     7.2692660180   -3.4255787401   -3.7497993160
     C     6.8565191236   -4.2932447898   -2.7870432404
     O     5.7059610411   -4.7288417119   -2.7256562710
     N     7.8517290273   -4.6499618181   -1.8927202595
     C     7.7406623812   -5.5235152401   -0.8087596870
     C     6.7228077429   -6.5307059544   -0.7541173579
     C     6.6634980098   -7.3920292527    0.3025784672
     C     7.6054197234   -7.3359622280    1.3713651462
     C     8.6432449224   -6.3405952638    1.3075577482
     C     8.6743207708   -5.4478805921    0.2007946359
     C     9.5824445554   -6.2773192119    2.3440791418
     C     9.5310614581   -7.1535601482    3.4330769092
     C     8.4893729824   -8.1466541163    3.4936827769
     C     7.5526193770   -8.2117434451    2.4572062638
     C     8.4465175699   -9.0334256262    4.6103799051
     C     9.3761864737   -8.9474073460    5.6105573179
     C    10.4074459433   -7.9670930813    5.5513494715
     C    10.4821430478   -7.0982875895    4.4968811103
     H     1.3036722358   -1.6422930733   -0.5027641409
     H    -0.6497887314    0.9209456525   -2.2861503342
     H    -3.1008122848    1.0690750925   -2.1065664839
     H    -0.5838665230   -2.2264371865    0.6408917902
     H    -2.6993707100   -3.0091853240    1.6443772172
     H    -5.2249320947    0.2981554948   -1.0970398037
     H    -7.3420267607   -0.4820792789   -0.0925257299
     H    -8.5340669001   -1.9792399072    1.4698059803
     H    -7.2678144102   -3.6254301080    2.8448592183
     H    -4.8108206426   -3.7815380442    2.6593442228
     H     3.3171058427   -1.2608719890   -1.1135167217
     H     5.0281730267    0.4101341247   -1.0400961449
     H     3.8820051822    1.5625986525   -1.7435837672
     H     6.7482324792    1.0298735761   -2.6098837763
     H     5.6623848608    2.2235237714   -3.3325518310
     H     7.4854760414    1.6007901630   -4.9175082952
     H     6.0286326567    1.0095617137   -6.8598633174
     H     5.2517082977    2.2258080334   -5.8367560310
     H     3.6409358144    0.4144378911   -6.4402543851
     H     2.9005480301   -0.1621193957   -4.1358264370
     H     3.4076227663    1.5297814675   -4.2175034289
     H     5.3068140322   -1.4140397096   -6.7324879883
     H     4.0291900339   -1.9021131778   -5.6096827886
     H     6.0225994933   -1.4199339347   -2.4863978688
     H     4.4470543290   -1.9023836122   -3.1328378344
     H     7.5756729502   -0.7191542816   -5.8329914233
     H     7.8779053113   -0.7111455367   -4.0895060497
     H     6.8628216223   -3.0887322043   -5.7581787528
     H     5.4962926894   -3.6052238891   -4.7590265797
     H     8.2383169981   -3.1449768028   -3.7906916679
     H     8.7109262033   -4.1159250048   -1.9203818323
     H     6.0027680890   -6.5892342527   -1.5588320741
     H     5.8864800891   -8.1524205021    0.3355278925
     H     9.4565764663   -4.6920320745    0.1624532046
     H    10.3706405257   -5.5277152710    2.3032900432
     H     6.7644778028   -8.9615883031    2.4974902718
     H     7.6560298330   -9.7797599846    4.6485830837
     H     9.3335664538   -9.6278704573    6.4568429366
     H    11.1382408615   -7.9134609804    6.3541212558
     H    11.2689050163   -6.3485346166    4.4502193405
