12
-2.4823327749389574e+02 frame 13   xyz file generated by TeraChem
     O     1.1046667070    0.0658840890   -0.0158095522
     C     2.3278448233    0.1454936516   -0.0862981094
     N     3.0169034859    1.0242474390   -0.8394165748
     C     2.3292817983    1.9889434644   -1.6677024281
     C     4.4617355396    1.0319499029   -0.8686092408
     H     2.9930005477   -0.5238449009    0.4878217414
     H     1.2561306556    1.8788785510   -1.5084236031
     H     2.5612839474    1.8210744561   -2.7262515033
     H     2.6376344874    3.0065027501   -1.4010446534
     H     4.8474068524    0.2639181262   -0.1933536550
     H     4.8469582432    2.0080396304   -0.5508576170
     H     4.8281328903    0.8276430097   -1.8818648027
