88
-1.9918867373564362e+03 frame 62   xyz file generated by TeraChem
     O     3.0433489640    1.5588716054    2.1603135769
     C     4.2186194639    1.7381859347    1.8444500235
     N     4.8150245127    2.9890934652    1.8838023180
     C     4.0797161113    4.1711406105    2.1263733162
     C     3.6201236472    4.4520683197    3.4272853296
     C     3.8572546630    3.5759483192    4.5281893303
     C     3.3886921194    3.8756102114    5.7780119353
     C     2.6493065365    5.0691366892    6.0105525768
     C     2.4175945577    5.9431309994    4.9857736960
     C     2.8990104630    5.6743047657    3.6685792274
     C     2.7053316805    6.5807731821    2.6244530282
     C     3.1819438793    6.3191446118    1.3384418047
     C     3.8677024887    5.0813857863    1.0719290226
     C     4.2980450281    4.8210264415   -0.2641105276
     C     4.0899808698    5.7344491560   -1.2618722417
     C     3.4360838050    6.9681739035   -0.9919497222
     C     2.9919643266    7.2469070400    0.2706723700
     N     5.0562095329    0.7451526130    1.4441196027
     C     4.6342105855   -0.6305149404    1.3003266262
     C     5.1355048933   -1.5866876804    2.3899629799
     C     4.5958561716   -1.1983531514    3.7745506177
     C     5.0728106298   -2.2028709571    4.8301087871
     C     6.6053949695   -2.2116328775    4.8752009681
     C     7.1525730720   -2.6118197403    3.5001684314
     C     6.6718083851   -1.6063402631    2.4480550910
     C     6.6426451732   -4.0104264868    3.1371136380
     C     5.1060499374   -4.0245509877    3.0887306318
     C     4.6396024742   -3.0009863926    2.0446675414
     C     4.5688909516   -3.6051082193    4.4665184673
     C     4.6538776524   -5.4417659301    2.7210910085
     N     3.2215815200   -5.6282117028    2.6165969141
     C     2.6202466620   -5.8996559341    1.4248371288
     O     3.2053056387   -5.8670060979    0.3432373065
     N     1.2818911819   -6.2355616054    1.5341315844
     C     0.4695350062   -6.5054325259    0.4110813579
     C     0.6834383071   -7.6825951180   -0.3329961957
     C     1.6886738361   -8.6341170427    0.0130297151
     C     1.8808155357   -9.7601473377   -0.7394266520
     C     1.0823246185  -10.0094589865   -1.8905312893
     C     0.0926882819   -9.1343051547   -2.2410952236
     C    -0.1501526812   -7.9544931256   -1.4737769043
     C    -1.1904789149   -7.0797290821   -1.7935653402
     C    -1.4330370570   -5.9330689043   -1.0343734327
     C    -0.5776104263   -5.6224971191    0.0811091422
     C    -0.8226985168   -4.4181394120    0.8075739192
     C    -1.8612220041   -3.5921991681    0.4715646957
     C    -2.7203596551   -3.9119928356   -0.6158882863
     C    -2.5060651518   -5.0460781325   -1.3488618180
     H     5.6847148893    3.1021040897    1.3783308591
     H     4.4300523181    2.6700461700    4.3597646291
     H     3.5841276673    3.1996842484    6.6063371509
     H     2.2796523473    5.2847772190    7.0094634428
     H     1.8654171882    6.8650355409    5.1537923354
     H     2.1749174882    7.5111876994    2.8177299616
     H     4.7831120040    3.8760731416   -0.4894220234
     H     4.4205493883    5.5151211780   -2.2736241792
     H     3.2847695426    7.6822578578   -1.7968933049
     H     2.4805854346    8.1821554595    0.4870954180
     H     6.0158578514    0.9713735989    1.2252997039
     H     4.9778645651   -0.9960596400    0.3230658234
     H     3.5399001285   -0.6300575787    1.2899629269
     H     3.4974095466   -1.1678103345    3.7459899377
     H     4.9417232239   -0.1883329008    4.0342209432
     H     4.6760949838   -1.9157824684    5.8130352263
     H     6.9542463622   -2.9204324067    5.6389599121
     H     6.9811679017   -1.2180766615    5.1564757578
     H     8.2502716570   -2.6187197266    3.5255008908
     H     7.0750477202   -1.8715955574    1.4593614668
     H     7.0471642175   -0.6035210185    2.6956755923
     H     6.9949264334   -4.7442429741    3.8767685390
     H     7.0440144975   -4.3176586143    2.1603111524
     H     3.5414186643   -3.0003196430    1.9905810118
     H     5.0122251473   -3.2919451321    1.0510542799
     H     4.8982013737   -4.3312821831    5.2243369243
     H     3.4698777899   -3.6173308844    4.4578701291
     H     5.0429045515   -6.1440806247    3.4711007632
     H     5.0797542335   -5.7194154886    1.7517007442
     H     2.7105611838   -5.8170637189    3.4670335221
     H     0.8085376538   -6.0067600518    2.3989285794
     H     2.2918428833   -8.4566368979    0.8963785013
     H     2.6469156391  -10.4768655866   -0.4556050684
     H     1.2567356017  -10.9051653279   -2.4806432316
     H    -0.5357934336   -9.3212339965   -3.1087917813
     H    -1.8286530084   -7.2988800186   -2.6471951520
     H    -0.1634686758   -4.1542482754    1.6288306248
     H    -2.0295891374   -2.6783480147    1.0350455079
     H    -3.5414727697   -3.2452309785   -0.8647697453
     H    -3.1491063795   -5.2961323127   -2.1894758722
