45
-1.4942959071731811e+03 frame 59   xyz file generated by TeraChem
     O     2.0664973543    1.2762518111   -0.5917166039
     N     1.7743221825    0.1384376210   -0.2480152973
     O     0.9830695407   -0.1185076276    0.6498623464
     C     2.4037864347   -0.9703057769   -0.9445761855
     C     3.3120057943   -0.6992506050   -1.9642046641
     C     3.9102299288   -1.7609859156   -2.6234344499
     C     3.6069634590   -3.0890461103   -2.2810193394
     C     2.6864436170   -3.3248644801   -1.2466301684
     C     2.0827056724   -2.2728262531   -0.5747870129
     C     4.2412768507   -4.2092882945   -2.9980439878
     C     4.5712834822   -5.4172751592   -2.3171307219
     N     5.1378191248   -6.4654784101   -2.8655506558
     C     5.4329406541   -6.4100667164   -4.1967319573
     C     5.1505565145   -5.2494626979   -4.9784784318
     C     4.5477891031   -4.1445550313   -4.3419973682
     C     5.4724175998   -5.2560422447   -6.3497275481
     C     6.0561328005   -6.3557774428   -6.9504909757
     C     6.3515922986   -7.5186522138   -6.1525402114
     C     6.0341009045   -7.5240931491   -4.8066830146
     O     6.9256727654   -8.6073591797   -6.6738376111
     C     6.3748146119   -6.3739790364   -8.3709551247
     N     6.9876359391   -7.3868612236   -8.9616894239
     C     7.1031937482   -7.0390663047  -10.2864407600
     C     6.5309077850   -5.7609984292  -10.4882061900
     N     6.0823121501   -5.3737139671   -9.2567323595
     C     6.4969350315   -5.1404483793  -11.7376285442
     C     7.0568806141   -5.8341613338  -12.7950871223
     C     7.6268017190   -7.1025034075  -12.5868224183
     C     7.6679302653   -7.7340344090  -11.3504178747
     N     8.2107957611   -7.7890261302  -13.7257849469
     O     8.1635347677   -7.2415156468  -14.8201331977
     O     8.7245279481   -8.8850204736  -13.5401193577
     H     3.5493176343    0.3260311720   -2.2232066669
     H     4.6393011866   -1.5562393158   -3.4015584622
     H     2.4178044151   -4.3421215660   -0.9785105177
     H     1.3653012330   -2.4521296230    0.2176029815
     H     4.3679952964   -5.4894737880   -1.2489612315
     H     4.3092777720   -3.2612064921   -4.9302201561
     H     5.2508940008   -4.3612902257   -6.9254730061
     H     6.2542683818   -8.4039567616   -4.2106442998
     H     7.1022260792   -8.4383381264   -7.6420169299
     H     5.6034021802   -4.5056151178   -9.0558534346
     H     6.0537820215   -4.1600936435  -11.8774117203
     H     7.0657989999   -5.4095953953  -13.7915700663
     H     8.1181369219   -8.7119629075  -11.2307817939
