47
-1.6463649005399707e+03 frame 84   xyz file generated by TeraChem
     C    -0.1237690852    1.0020919931    1.1482491542
     C    -1.2802662132    0.2109063905    1.4146535624
     C    -1.1022598018   -1.0592845816    0.7916732247
     C     0.1650814443   -1.0491053019    0.1361154042
     C     0.7721109334    0.2224899115    0.3587371591
     C     4.5828938494    1.3527335292   -0.1641540529
     O     3.6389992611    0.9312074216   -1.1370508372
     C     3.8684868138   -0.2443941004   -1.7790836034
     C     2.9340744952   -0.5998353182   -2.7612624835
     C     3.0817376115   -1.7826520042   -3.4656125354
     C     4.1614952816   -2.6418122171   -3.2105211529
     C     5.0835686453   -2.2767610203   -2.2274615962
     C     4.9478188797   -1.0897267791   -1.5120330181
     C     4.3253124370   -3.8886873091   -3.9619666452
     N     3.5126580981   -4.2412343564   -4.9535747824
     N     4.0227138622   -5.4209361290   -5.3521113230
     C     5.0889809790   -5.7336579146   -4.6032523911
     N     5.3178092813   -4.7883422695   -3.7026974180
     S     6.0601120325   -7.1766989501   -4.8094296269
     C     4.8472952182   -8.3263412702   -5.5638239026
     C     4.6160512566   -8.1097197922   -7.0563104873
     O     3.8983866076   -7.1284163462   -7.3956168875
     C     5.1975176827   -9.0144988093   -7.9682818377
     C     6.0298266841  -10.1573559723   -7.6882553336
     C     6.3750776963  -10.7390217462   -8.8913457615
     C     5.7685439980   -9.9853559682   -9.9530528283
     C     5.0571385680   -8.9422436832   -9.3975609625
    Fe    -0.9981355042    0.4187661853   -0.5540437284
     H     0.0023971811    2.0469407303    1.4074167106
     H    -2.1818211866    0.5527553454    1.9100256427
     H    -1.8441184819   -1.8469830894    0.7311266625
     H     0.5540203355   -1.8302131192   -0.5070647714
     H     1.6934272433    0.5762664697   -0.0952404694
     H     4.2234056830    2.3147061530    0.2030574344
     H     5.5768028261    1.4770952873   -0.6085999263
     H     4.6402145911    0.6410294124    0.6674705441
     H     2.1018878863    0.0693577808   -2.9639084190
     H     2.3550502826   -2.0488131391   -4.2275123384
     H     5.9242415378   -2.9320249029   -2.0194973890
     H     5.6831203816   -0.8365746222   -0.7562098881
     H     3.7027665175   -5.9714620308   -6.1792121440
     H     3.9026439616   -8.2129228332   -5.0222752449
     H     5.2514466325   -9.3160077181   -5.3452850457
     H     6.3434422269  -10.4990766995   -6.7069273249
     H     6.9991246908  -11.6191800019   -9.0192642653
     H     5.8599301568  -10.2063982218  -11.0131257086
     H     4.4836934775   -8.1869784304   -9.9243204883
