26
-6.3125125915239607e+02 frame 19   xyz file generated by TeraChem
     O     2.2462789576   -0.1719074356    0.1477548737
     C     0.8965102912   -0.1914008067    0.1020928746
     C     0.1651507911   -1.3844522443    0.0127008082
     C    -1.2175804714   -1.3441736969   -0.0329266719
     C    -1.9037998630   -0.1203341884    0.0126343553
     C    -1.1565493127    1.0634493759    0.1045988050
     C     0.2287814954    1.0368507645    0.1480508390
     C    -3.3581635345   -0.0446942302   -0.0352141213
     N    -4.1103599163   -1.0799696285   -0.1150104305
     C    -5.4984449900   -0.9080492781   -0.2173180147
     C    -6.0939222532    0.1170191165   -0.9694019969
     C    -7.4802406823    0.2158752890   -1.0471821720
     C    -8.2931769057   -0.7003321663   -0.3814551645
     C    -7.7069689658   -1.7317072423    0.3532933169
     C    -6.3228922586   -1.8441274497    0.4235755832
     H     2.5854246521   -1.0797108154    0.0985006536
     H     0.6914212548   -2.3360541443   -0.0212433925
     H    -1.7866636297   -2.2666979187   -0.1031899282
     H    -1.6746576313    2.0194324842    0.1402051338
     H     0.8082645252    1.9526948055    0.2167402022
     H    -3.7797152862    0.9695754557    0.0141776285
     H    -5.4674117624    0.8164504274   -1.5172185857
     H    -7.9272478928    1.0100104561   -1.6401310812
     H    -9.3749094421   -0.6206930358   -0.4468691205
     H    -8.3316311843   -2.4576096981    0.8676850321
     H    -5.8570260931   -2.6489845623    0.9861401787
