52
-1.5986216783115128e+03 frame 44   xyz file generated by TeraChem
     O     4.8488269653    4.2096454073   -0.1236431252
     C     5.4772828717    3.6247032999    0.9004431810
     O     6.4404498107    4.1489483896    1.4175020675
     C     4.8810061803    2.3400450262    1.3786870189
     C     4.6500263545    2.1865373366    2.7433396237
     C     3.9936667001    1.0537334444    3.2207559475
     C     3.5647521994    0.0721629202    2.3317665716
     C     3.8051981768    0.2134067006    0.9659606387
     C     4.4753185562    1.3374205588    0.4818732412
     C     4.9242314747    1.3534539697   -0.9485641514
     O     6.1037622768    1.5557461967   -1.2128955488
     C     3.9491915477    1.0215747222   -1.9935137289
     C     4.2275757717    0.1990831346   -3.1103112063
     C     5.3876395396   -0.4570604663   -3.5469558959
     C     5.3563161543   -1.2329322201   -4.6890115031
     C     4.1256282930   -1.3530633109   -5.3962241276
     C     2.9973610215   -0.7231575477   -4.9648810262
     N     3.0512460710    0.0478762066   -3.8359677918
     C     2.0494605438    0.7749753673   -3.2287409965
     C     2.5929763554    1.3817110352   -2.0971300498
     C     1.8111754023    2.3680222029   -1.3449015551
     O     2.3192538196    3.1317582884   -0.5248993192
     C     0.3648267665    2.4360044459   -1.6657606282
     C    -0.4655669580    3.2334912806   -0.8781562682
     C    -1.8230204461    3.3337368561   -1.1689165868
     C    -2.3536826022    2.6480979368   -2.2602596587
     C    -1.5293622531    1.8591381629   -3.0594302266
     C    -0.1727495606    1.7410121780   -2.7691982221
     C     0.6737629541    0.8849382393   -3.6526403221
     O     0.2131621550    0.3159751085   -4.6418488504
     C     6.5694011320   -1.9183951429   -5.1774411731
     C     7.5465956322   -2.3893487578   -4.2934480114
     C     8.6723539913   -3.0232925871   -4.8055657114
     N     8.8910806331   -3.2184970622   -6.1100122217
     C     7.9546756135   -2.7673417556   -6.9500362196
     C     6.7918154596   -2.1224421320   -6.5436902412
     H     3.9897950905    3.7623916552   -0.3158943986
     H     4.9642140693    2.9716347791    3.4251227160
     H     3.8098606766    0.9449270075    4.2857190095
     H     3.0500942509   -0.8109206720    2.6994149353
     H     3.5007202222   -0.5682185786    0.2751526741
     H     6.3004056257   -0.3032939377   -2.9827410232
     H     4.0576496507   -1.9717224087   -6.2839686152
     H     2.0310170074   -0.7840246475   -5.4467010256
     H    -0.0356812435    3.7673278354   -0.0362429402
     H    -2.4654024303    3.9491808643   -0.5459556641
     H    -3.4118792509    2.7292996024   -2.4917525150
     H    -1.9274696527    1.3265280472   -3.9175557080
     H     7.4269515504   -2.2878916851   -3.2191542153
     H     9.4362638551   -3.3990156130   -4.1270983042
     H     8.1418537427   -2.9253433035   -8.0107156707
     H     6.0868998201   -1.7675529347   -7.2894505481
