30
-8.2063262906370528e+02 frame 33   xyz file generated by TeraChem
     O     3.5055297135    0.3442327505   -1.0258331792
     C     2.6385858075   -0.1138089160   -0.1138246235
     O     1.4539299417    0.0914041829   -0.2526788672
     C     3.2263003093   -0.8344867753    1.0608707295
     C     4.3614740953   -0.3341880124    1.6528358331
     C     4.8907257234   -0.9573696844    2.8166364069
     N     4.3217285430   -2.0203819587    3.3533902560
     C     3.2049615234   -2.5399166736    2.7821426381
     C     2.5930758124   -1.9835270885    1.6177954458
     C     1.4375168343   -2.6031080817    1.0834440407
     C     0.9096818179   -3.7218581825    1.6845222109
     C     1.5087488858   -4.2691968745    2.8411374300
     C     2.6332786439   -3.6916510238    3.3786861929
     C     6.0985690701   -0.4186993956    3.4849179947
     C     6.3334178344   -0.7164314062    4.8346125628
     C     7.4574237151   -0.2209659408    5.4845624784
     C     8.3715368330    0.5763364618    4.7955655245
     C     8.1526840768    0.8713123246    3.4515361265
     C     7.0245147525    0.3801197901    2.8006620791
     H     4.4045672007    0.0194380178   -0.8489740781
     H     4.8239099601    0.5697031234    1.2690526336
     H     0.9700768686   -2.1839127645    0.1999364182
     H     0.0233377616   -4.1902108156    1.2659234955
     H     1.0768460933   -5.1528935283    3.3026596376
     H     3.1154079420   -4.0962669259    4.2638356177
     H     5.6181579223   -1.3364269358    5.3659659099
     H     7.6195809855   -0.4541179816    6.5336317254
     H     9.2508143004    0.9639265628    5.3032105077
     H     8.8647237849    1.4826172561    2.9036642706
     H     6.8852502149    0.6051180459    1.7470011186
