45
-1.7364460515254445e+03 frame 125   xyz file generated by TeraChem
     C    -1.3996155995    0.6615460662    0.2193994958
     C    -1.1720462919    0.7467326063   -1.1855032538
     C    -0.3477876914   -0.3526940070   -1.5658543824
     C    -0.0739771765   -1.1212099602   -0.3968803059
     C    -0.7201102608   -0.4939966172    0.7058068894
     O     3.5725290533   -1.1242027361    1.0945108725
     C     3.3204862714   -0.5050470865    0.0693140806
     C     2.6086919907    0.7761062860    0.0871055284
     C     1.9656953199    1.3145758090    1.2521359260
     C     1.2408602744    2.4675118833    0.8590994328
     C     1.4217038760    2.6542119055   -0.5443421241
     C     2.2538016449    1.6126522576   -1.0291384554
     C     3.7652693566   -1.0610333423   -1.2720363009
     S     5.4955785308   -0.5833047794   -1.6133525734
     C     6.3250162071   -1.7710447378   -0.6264626533
     N     7.4033403617   -1.4733494308    0.1222800942
     N     7.8813168704   -2.5703502596    0.7204334188
     C     7.0359758158   -3.5103425647    0.3100194807
     N     6.0655470899   -3.0627852073   -0.5321410534
     C     7.1474970973   -4.9088453289    0.7290537113
     C     8.1595074218   -5.3103065908    1.6125181256
     C     8.2582241612   -6.6336422004    2.0102188007
     C     7.3348695115   -7.5516844027    1.5158065717
     C     6.3219309371   -7.1808417799    0.6367665165
     C     6.2335211775   -5.8539287553    0.2455898462
     N     7.4305012494   -8.9414011815    1.9340699618
     O     8.3326756138   -9.2520825255    2.7002735918
     O     6.6037961421   -9.7326286133    1.5007152128
    Fe     0.5980808418    0.8059111465   -0.1728113561
     H    -1.9521154898    1.3741774272    0.8187629408
     H    -1.5202714114    1.5365447694   -1.8391895006
     H     0.0285829841   -0.5515538823   -2.5616079412
     H     0.5561513966   -2.0009084196   -0.3465411409
     H    -0.6679757064   -0.8140476185    1.7389999256
     H     2.0036629694    0.8798686874    2.2420237421
     H     0.6130379927    3.0719137429    1.5015184665
     H     0.9605140358    3.4268584814   -1.1463562507
     H     2.5541618407    1.4755538306   -2.0599782167
     H     3.1824167317   -0.6802149230   -2.1127288006
     H     3.7108543692   -2.1518030266   -1.2592331535
     H     7.8445764792   -0.5725347757    0.2642314890
     H     8.8680972271   -4.5786902215    1.9866987418
     H     9.0328724192   -6.9587773214    2.6946106390
     H     5.6205637049   -7.9220922525    0.2721276939
     H     5.4532573568   -5.5394878063   -0.4393036910
