43
-1.3518064974599347e+03 frame 53   xyz file generated by TeraChem
     O     4.1570954471   -1.9549484896   -4.3012536134
     C     4.6210157784   -0.7058173401   -4.3978021770
     O     5.4226612105   -0.4052715209   -5.2559733924
     C     4.0437116373    0.2761192777   -3.4298874272
     C     3.5677778073    1.4879923328   -3.9239703100
     C     2.9221749783    2.3857684395   -3.0757890386
     C     2.7497565339    2.0705273132   -1.7309724610
     C     3.2373433877    0.8654332898   -1.2275368010
     C     3.8984082315   -0.0319936712   -2.0669074244
     C     4.6195389660   -1.1981223629   -1.4595403252
     O     5.8081667063   -1.3686412952   -1.7069994091
     C     3.9058278111   -2.0430607025   -0.4971985131
     C     4.4707507752   -2.5378294605    0.7016406144
     C     5.7464423952   -2.4262237717    1.2819581613
     C     5.9816624513   -3.0099374187    2.5025323545
     C     4.9468217475   -3.7082763453    3.1693598320
     C     3.7063161804   -3.8094764396    2.6084749528
     N     3.4792193596   -3.2310144979    1.3889382254
     C     2.3176177927   -3.2145778979    0.6423935729
     C     2.5722761351   -2.4910053770   -0.5213114111
     C     1.5817181110   -2.4664061259   -1.6016466589
     O     1.8571447064   -2.1052685628   -2.7455186778
     C     0.2266027901   -2.9603952313   -1.2555060321
     C    -0.8063578531   -2.8080379224   -2.1803711290
     C    -2.0830763090   -3.2799899587   -1.8893470341
     C    -2.3285968760   -3.9216950190   -0.6765374900
     C    -1.2993489531   -4.0905510123    0.2469542700
     C    -0.0219266518   -3.6102018241   -0.0283890429
     C     1.0524284815   -3.8149313184    0.9886655907
     O     0.8500779662   -4.4326220851    2.0345170603
     H     3.3978186877   -2.0034352153   -3.6718939579
     H     3.6849697339    1.7112326374   -4.9805489179
     H     2.5463235295    3.3257489438   -3.4695454594
     H     2.2446472268    2.7661261394   -1.0669374863
     H     3.1334239234    0.6343396796   -0.1708772240
     H     6.5170289628   -1.8912608880    0.7394429222
     H     6.9637056953   -2.9397886110    2.9592947840
     H     5.1218432645   -4.1711881082    4.1341336021
     H     2.8597875141   -4.3183850223    3.0490194523
     H    -0.5964510270   -2.3130771729   -3.1234955078
     H    -2.8853368381   -3.1493835551   -2.6096691279
     H    -3.3233925510   -4.2945530761   -0.4499162052
     H    -1.4731634985   -4.5965200499    1.1916266031
