56
-1.3807996413011333e+03 frame 51   xyz file generated by TeraChem
     O     0.2567807171   -2.0495707133   -2.2953120208
     C     0.3677321610   -2.5286805127   -1.0209827834
     C     1.6270874167   -2.5859273991   -0.3972380344
     C     1.7210058358   -3.1457665054    0.8776009912
     C     0.5945342072   -3.6435588184    1.5256566143
     C    -0.6477675837   -3.5520365121    0.9056093387
     C    -0.7872871517   -2.9814120602   -0.3623135077
     C    -2.1697038114   -2.7986539835   -0.9613408479
     C    -2.9404127539   -1.6994405867   -0.2594841531
     C    -3.8786996931   -1.9877667219    0.7301575705
     C    -4.5306031577   -0.9722733153    1.4280801181
     C    -4.2294416406    0.3546598434    1.1394166089
     C    -3.3034434998    0.6901125758    0.1477920266
     C    -2.6763680605   -0.3501717806   -0.5597485798
     O    -1.8013656517   -0.1235953767   -1.5659115459
     C    -2.9659605595    2.1435115916   -0.1264802609
     C    -1.6605949668    2.5804496655    0.5104084774
     C    -0.4610052109    2.6307573507   -0.2053999073
     C     0.7606648942    2.9784667384    0.3785537442
     C     2.0547263562    2.9546406320   -0.4113428301
     C     2.8721253261    1.7004330134   -0.1713866912
     C     2.5470720330    0.4720235657   -0.7693787645
     C     3.2836417715   -0.6927260025   -0.4952978951
     C     2.8650451098   -2.0279651245   -1.0719188577
     C     4.3754228073   -0.6003654838    0.3670502218
     C     4.7299608343    0.6099331281    0.9575672986
     C     3.9717746906    1.7439540644    0.6908208185
     O     1.5161787972    0.3418707156   -1.6534918549
     C     0.7593393752    3.3159004948    1.7336404334
     C    -0.4201472046    3.2913179204    2.4717783281
     C    -1.6159756129    2.9202304431    1.8651104819
     O    -0.4655330559    2.2360544925   -1.5463479907
     H     0.6959431102   -1.1752677019   -2.3059427007
     H     2.6954101548   -3.1938103003    1.3600679812
     H     0.6832161700   -4.0924954254    2.5115175316
     H    -1.5371205449   -3.9117978678    1.4194796136
     H    -2.7310167379   -3.7350056704   -0.8622205143
     H    -2.0759569226   -2.5727922455   -2.0260159538
     H    -4.0977314684   -3.0295744565    0.9558081066
     H    -5.2634700515   -1.2146005183    2.1926912850
     H    -4.7234739911    1.1568567195    1.6839364637
     H    -1.5855197523    0.8240928359   -1.6554921190
     H    -3.7702616257    2.7631583359    0.2830265028
     H    -2.9441568771    2.3436284622   -1.2044193655
     H     2.6590885462    3.8155714454   -0.1086549546
     H     1.8502953585    3.0853188963   -1.4800782291
     H     3.6926505441   -2.7324714352   -0.9339549598
     H     2.6954659377   -1.9470528378   -2.1508742252
     H     4.9520382780   -1.4988422556    0.5761404341
     H     5.5868213661    0.6670060919    1.6229481614
     H     4.2333398826    2.6944520701    1.1507791775
     H     0.9381350789    1.1336532992   -1.6911021054
     H     1.6961210412    3.5966172765    2.2096893562
     H    -0.4067902209    3.5602444065    3.5245361846
     H    -2.5361298771    2.8918699762    2.4441175094
     H    -0.4951623962    3.0091562371   -2.1359718969
