40
-1.5299363688833892e+03 frame 163   xyz file generated by TeraChem
     C     0.8329243018   -0.2828060831   -2.6874513546
     C    -0.3601087640   -0.9085833592   -2.2205243658
     C    -0.7400329049   -0.2710757617   -1.0027547808
     C     0.2141238656    0.7468054372   -0.7200522457
     C     1.1865267126    0.7403517125   -1.7631074658
     O     2.8206182516    0.3335850504    2.2527513689
     C     3.2278280069   -0.1318662078    1.1964804814
     C     2.6000434434   -1.2893575125    0.5565192300
     C     2.9762911130   -1.9240976143   -0.6781492131
     C     2.0219608113   -2.9364419694   -0.9513771734
     C     1.0480237714   -2.9302292302    0.0899862850
     C     1.3924558214   -1.9159641801    1.0172355416
     C     4.4304936909    0.4680641682    0.5008583268
     S     4.9477006182    1.9282932698    1.4450116995
     C     6.1642606508    2.5228098506    0.3363179123
     N     6.9946451978    3.5307434180    0.6581061592
     N     7.8079900626    3.8239096160   -0.3754195780
     C     7.4194176522    2.9475316112   -1.2912280464
     N     6.4059589096    2.1207872743   -0.9015568116
     C     8.0314100124    2.8928203060   -2.6023770256
     C     9.0244137252    3.6236286827   -3.1914400688
     C     9.1758792662    3.0986965735   -4.5082143127
     C     8.2672058441    2.0922401861   -4.6198834139
     O     7.5646614580    1.9545161851   -3.4689244022
    Fe     1.1286058544   -1.0833105670   -0.8265850073
     H     1.3987164492   -0.5674788109   -3.5659214061
     H    -0.8598753973   -1.7512619454   -2.6817601530
     H    -1.5799784638   -0.5453681377   -0.3765620477
     H     0.2291061415    1.3797914000    0.1587288693
     H     2.0667429952    1.3691614753   -1.8167922326
     H     3.8238021100   -1.6638670238   -1.2997902351
     H     2.0055339066   -3.5691433411   -1.8299691472
     H     0.1648918606   -3.5551684381    0.1334455405
     H     0.8375267826   -1.6356924767    1.9029197435
     H     4.1855592774    0.7542352315   -0.5259458930
     H     5.2445141265   -0.2639500319    0.4559663268
     H     7.0646784153    4.0457825266    1.5263028134
     H     9.5736551926    4.4361607154   -2.7360231204
     H     9.8693009645    3.4279282196   -5.2701117624
     H     8.0062521221    1.4065882425   -5.4126995249
