43
-1.2899893178196239e+03 frame 18   xyz file generated by TeraChem
     O     3.3525270843   -0.0480283607   -1.8057698248
     N     2.7853560484    0.2760989379   -0.7707353436
     O     1.7710645328   -0.2661558671   -0.3518570455
     C     3.3489865965    1.3667868133    0.0058563424
     C     4.5146861658    1.9817676655   -0.4411853273
     C     5.0534031764    3.0171986245    0.3065206034
     C     4.4378788531    3.4486148243    1.4933241091
     C     3.2587812540    2.8084284577    1.9098855224
     C     2.7121398744    1.7672260055    1.1768401629
     C     5.0150214641    4.5464687482    2.2882290215
     C     5.6804568423    5.6353963258    1.6538660884
     N     6.2222089295    6.6565040734    2.2740607568
     C     6.1541458323    6.6876108307    3.6365681701
     C     5.5060909278    5.6541616316    4.3782673041
     C     4.9353523949    4.5798157926    3.6662808484
     C     5.4702394609    5.7425921742    5.7846474245
     C     6.0431944269    6.8039169260    6.4583041936
     C     6.6966606458    7.8432743667    5.7029549448
     C     6.7376747864    7.7664778574    4.3227458296
     O     7.2718990153    8.8912132378    6.3006181926
     C     6.0086424744    6.9032017750    7.9116209655
     N     6.5669041089    7.9021306466    8.5799433786
     C     6.3304625724    7.6501370514    9.9126017359
     C     5.5993804824    6.4493817343   10.0374714567
     N     5.4154009286    6.0062557621    8.7487064733
     C     5.2107293156    5.9351529086   11.2733495843
     C     5.5800726356    6.6678539085   12.3941144695
     C     6.3097916659    7.8676859069   12.2859984805
     C     6.6941374971    8.3742019482   11.0527817182
     H     4.9926153518    1.6420974869   -1.3524060416
     H     5.9791232919    3.4769709217   -0.0259678576
     H     2.7497851379    3.1430969639    2.8088177234
     H     1.8000293149    1.2762441837    1.4961754515
     H     5.7357265237    5.6554106627    0.5656578268
     H     4.4575031656    3.7743271379    4.2196688365
     H     4.9740262644    4.9431317079    6.3293535624
     H     7.2308600793    8.5524770260    3.7596437153
     H     7.1572472556    8.7870544354    7.2914209588
     H     4.9173238725    5.1685035927    8.4822426221
     H     4.6486461717    5.0097574949   11.3555136659
     H     5.2993582276    6.3057861927   13.3792581843
     H     6.5765664959    8.4061823815   13.1911184677
     H     7.2571285603    9.2989388821   10.9665424177
