28
-7.9092369178092713e+02 frame 27   xyz file generated by TeraChem
     C     1.1879295952    0.4062048001    0.2626283144
     C     0.4846560334   -0.7797074993    0.4879209623
     C    -0.8810760372   -0.8423406552    0.2470137287
     C    -1.5698011381    0.2861036750   -0.2261539768
     C    -0.8551565959    1.4717984172   -0.4495056499
     C     0.5136764830    1.5314477824   -0.2065761126
     C    -3.0029346844    0.2841033006   -0.4972881545
     N    -3.7409757573   -0.7518966172   -0.3134455545
     N    -5.0504927543   -0.6225290807   -0.6007182213
     C    -5.9111446997   -1.6625285989   -0.4385153289
     N    -7.1944589517   -1.4456108851   -0.7449765446
     C    -8.0621056021   -2.4575852725   -0.5919483028
     N    -7.8324246765   -3.6917886365   -0.1651181116
     C    -6.5402493675   -3.9090993414    0.1425914949
     C    -5.5402800655   -2.9310765366    0.0239811577
     N    -4.3844519399   -3.5441312061    0.4296753717
     C    -4.7206816750   -4.8133274848    0.7612062598
     N    -6.0019180103   -5.0831518357    0.6076590005
     H     2.2569528416    0.4497032860    0.4527954928
     H     1.0071007978   -1.6596851153    0.8537974271
     H    -1.4217023635   -1.7670950877    0.4241578760
     H    -1.3815330096    2.3504437503   -0.8157167711
     H     1.0534350800    2.4577660342   -0.3839029537
     H    -3.4355893113    1.2191015379   -0.8709629445
     H    -5.4310917962    0.2580839858   -0.9422751002
     H    -9.0917707168   -2.2222615579   -0.8567705431
     H    -3.4681132258   -3.1182097900    0.4621884761
     H    -3.9765449000   -5.5152793393    1.1160280150
