26
-7.0239353678872067e+02 frame 17   xyz file generated by TeraChem
     C     3.8835639061   -0.9488512773   -0.0004784839
     N     2.9395964050   -1.9026026369   -0.0010485175
     C     1.6664647413   -1.5281509143   -0.0002764423
     C     1.2534817561   -0.1875645181    0.0011586275
     C     2.2501965770    0.8161192763    0.0014935147
     C     3.5893193967    0.4006716988    0.0006937069
     C     1.8829017311    2.2053470134    0.0024812585
     C     0.5788680428    2.5661662084    0.0030820555
     C    -0.4387875496    1.5667451883    0.0029746875
     N    -0.0813918108    0.2129561600    0.0021046777
     C    -1.2825722354   -0.4946616081    0.0026022120
     C    -1.6201464061   -1.8522081807    0.0023984221
     C    -2.9706434064   -2.1751865446    0.0031158360
     C    -3.9713240202   -1.1871831115    0.0040421779
     C    -3.6417808432    0.1570997121    0.0043120668
     C    -2.2854615831    0.5068512140    0.0036081452
     N    -1.7385537638    1.7652793057    0.0038235916
     H     4.9158021658   -1.2912817872   -0.0010850025
     H     0.9435367731   -2.3336667127   -0.0009549413
     H     4.3817753414    1.1434843572    0.0009640263
     H     2.6728246908    2.9505623005    0.0026584837
     H     0.2604750346    3.6030451683    0.0037621835
     H    -0.8899149247   -2.6504813884    0.0017709380
     H    -3.2554266066   -3.2234324522    0.0029768051
     H    -5.0155876126   -1.4870058691    0.0045777735
     H    -4.4015754178    0.9332703849    0.0050721975
