44
-1.6548573157851242e+03 frame 35   xyz file generated by TeraChem
     O     1.9474526851   -1.0587895406    0.8616046628
     C     0.8204448480   -0.3414368406    0.6732398786
     C     0.6138686493    0.4363672753   -0.4789255832
     C    -0.5614288162    1.1485584487   -0.6071631232
     C    -1.5515210901    1.1101642928    0.3881878644
     C    -1.3307237513    0.3205262439    1.5467864082
     C    -0.1446349135   -0.3984520744    1.6755279507
     O    -2.2261185495    0.2351738858    2.5411469359
     C    -2.7782511628    1.8495410940    0.2637278620
     N    -3.7582048196    1.8829170244    1.1312266922
     C    -4.7013228187    2.7195505353    0.5693573457
     C    -4.2253667757    3.1623411323   -0.6505984105
     O    -2.9963249614    2.6044924018   -0.8434002205
     C    -4.9255489531    4.0501488269   -1.4980429264
     C    -6.1631364239    4.4570482006   -1.0232245808
     C    -6.6977125812    4.0270963214    0.2206354068
     C    -5.9643660628    3.1329479075    1.0610895109
     C    -6.5061412557    2.7165494171    2.2945892313
     C    -7.7447078224    3.1707910268    2.6900606287
     C    -8.4812285812    4.0529195419    1.8685209280
     C    -7.9706487373    4.4713196845    0.6619074374
     C    -4.3802170821    4.5023366315   -2.7739582016
     N    -3.3198794726    3.9992304377   -3.3294777334
     C    -3.0369988489    4.6220543014   -4.5250086319
     C    -3.9288554382    5.6536396543   -4.8948518237
     S    -5.1492946024    5.8202238196   -3.6694119729
     C    -3.7639838378    6.3730221202   -6.0780853409
     C    -2.6875266161    6.0435836193   -6.8928337394
     C    -1.7946748919    5.0190849042   -6.5390679167
     C    -1.9595410511    4.3049019714   -5.3627370210
     H     2.5406036788   -0.9352882694    0.1037990710
     H     1.3736645635    0.4727645942   -1.2550301309
     H    -0.7311164241    1.7533685750   -1.4930603512
     H     0.0225256682   -1.0012358916    2.5622922634
     H    -3.0115583443    0.7934678420    2.3094154985
     H    -6.7726861351    5.1297137306   -1.6217600177
     H    -5.9352435123    2.0373584772    2.9212686476
     H    -8.1608259662    2.8485790521    3.6406173514
     H    -9.4570077654    4.4014787217    2.1951422848
     H    -8.5356429374    5.1506069087    0.0282369237
     H    -4.4527768150    7.1653604875   -6.3548442751
     H    -2.5369428673    6.5899185871   -7.8196872176
     H    -0.9632234499    4.7845929839   -7.1976372458
     H    -1.2760667287    3.5102441378   -5.0781472242
