14
-3.0731773999260247e+02 frame 11   xyz file generated by TeraChem
     O    -1.3604128613    0.0114332620    0.4025338486
     C    -0.7591130936   -1.1558622906   -0.1339981337
     C     0.7308749771   -1.1643478974    0.1485979286
     O     1.3469616787   -0.0094615667   -0.3981588739
     C     0.7456775736    1.1578178509    0.1384426989
     C    -0.7443071628    1.1663257978   -0.1441668783
     H    -0.9274379448   -1.1971059177   -1.2223610971
     H    -1.2501498458   -2.0150285422    0.3333353651
     H     1.2105754603   -2.0337825157   -0.3114369365
     H     0.8988398321   -1.1983116241    1.2372529643
     H     1.2367416622    2.0170105506   -0.3288098864
     H     0.9139776993    1.1989619244    1.2268140694
     H    -0.9122743148    1.2003646963   -1.2328190880
     H    -1.2239935962    2.0357463022    0.3159139884
