43
-1.5320535753396566e+03 frame 166   xyz file generated by TeraChem
     C    -1.0900788374    0.9512805049   -0.5673415556
     C    -1.9581441489    0.1240239007    0.2001607671
     C    -1.6524757626   -1.2321321988   -0.0959204470
     C    -0.5932390730   -1.2480440470   -1.0482554437
     C    -0.2479047945    0.1045527664   -1.3485041149
     O     1.6039863333   -0.0618246880    1.3536051265
     C     2.8454505977    0.3118111822    1.1627598787
     C     3.7935257536   -0.5266879223    0.6327674152
     C     5.1922895404   -0.2199070193    0.3484617148
     C     5.7486049502   -1.3294509877   -0.2180771608
     C     4.7404514419   -2.3720794557   -0.3054163250
     C     3.5681187577   -1.8974045066    0.2038355189
     C     3.1772564361    1.7110610490    1.6078819054
     S     2.1072004413    3.0075690390    0.9026881606
     C     2.3932940516    2.8586104390   -0.8159620715
     N     3.3194878160    2.1142444768   -1.4466706294
     N     3.2215387518    2.2804037107   -2.7806444447
     C     2.2260992514    3.1496927840   -2.8938211155
     N     1.6805304005    3.5320873726   -1.7037190552
     C     1.7498508799    3.6501354150   -4.1877585911
     C     2.3672457348    3.2513326305   -5.3801298830
     C     1.9056191090    3.7293519229   -6.6013037356
     C     0.8241762525    4.6096087533   -6.6480646068
     C     0.2072961000    5.0100547723   -5.4639462217
     C     0.6663443768    4.5341656323   -4.2395962547
    Fe     0.0188125925   -0.2658906914    0.5954699611
     H    -1.0274139519    2.0312073290   -0.5120444249
     H    -2.6589677853    0.4665424620    0.9521697251
     H    -2.0773035049   -2.1002421927    0.3933713508
     H    -0.0912082609   -2.1316191094   -1.4233276356
     H     0.5516421963    0.4261059160   -2.0046148589
     H     5.7035822103    0.7105723874    0.5690820849
     H     6.7781551324   -1.4305455968   -0.5452416525
     H     4.9075998015   -3.3634374388   -0.7138134195
     H     2.6260924875   -2.4265612012    0.2837388642
     H     4.2252375291    1.9588503330    1.4358570828
     H     2.9821531290    1.8015488488    2.6832807299
     H     3.9956632692    1.4611626403   -1.0644599437
     H     3.2092142934    2.5662114931   -5.3429522714
     H     2.3919001075    3.4141840435   -7.5207250020
     H     0.4648756757    4.9817595187   -7.6038311898
     H    -0.6354066695    5.6957632326   -5.4928234000
     H     0.1891242877    4.8431371132   -3.3143865111
