30
-7.6196082881133611e+02 frame 49   xyz file generated by TeraChem
     N     2.4706421000    0.5569801778   -1.3624204446
     C     2.2598798449   -0.6386064068   -0.5453773574
     C     0.7556076719   -0.7629426884   -0.3708184085
     O     0.1137295762   -0.1289416405    0.4389456077
     O     0.2142290828   -1.5864650130   -1.2768426645
     C    -1.2150066720   -1.6842061835   -1.2672656906
     C    -1.8865451703   -0.5312908190   -1.9683663749
     C    -1.2422378000    0.1805593669   -2.9828150851
     C    -1.9034455896    1.2107909433   -3.6487812226
     C    -3.2177711433    1.5332547615   -3.3162601286
     C    -3.8658434353    0.8247863198   -2.3055617952
     C    -3.2013473856   -0.1981261521   -1.6331258085
     C     2.9526992300   -0.6124911334    0.8138193820
     C     2.7549613276   -1.9106218342    1.5710527761
     O     1.9019548156   -2.7320588964    1.2313133600
     N     3.5667621956   -2.1008086810    2.6278953107
     H     3.4613338823    0.6269363514   -1.5855864475
     H     2.2536864404    1.3804364553   -0.8027728307
     H     2.6055713349   -1.5011276977   -1.1215908395
     H    -1.5681241740   -1.7673332524   -0.2357703895
     H    -1.4209868517   -2.6257941582   -1.7847936044
     H    -0.2143965069   -0.0594958685   -3.2410007668
     H    -1.3884114428    1.7616863051   -4.4317112525
     H    -3.7328557550    2.3357922129   -3.8376894901
     H    -4.8879859713    1.0745568632   -2.0327263863
     H    -3.7073212961   -0.7413387446   -0.8374659845
     H     2.5428502595    0.2103287487    1.4145404138
     H     4.0215636983   -0.4087563563    0.6796348943
     H     4.2433452971   -1.4096210681    2.9161920692
     H     3.4443394330   -2.9205599933    3.2057249312
