38
-1.6373112087869843e+03 frame 30   xyz file generated by TeraChem
     C     2.9146733521    0.4877826260    0.9159443309
     C     3.9359921338   -0.6287715088    0.7684954390
     N     3.7536344652   -1.3794851983   -0.4691233236
     C     2.9487289621   -2.4628291569   -0.5740870631
     S     2.0486331131   -3.1764454065    0.6422714631
     S     2.9658395117   -3.0642977944   -2.2056242087
     C     4.0833816964   -1.8155411509   -2.7434240653
     C     4.5256075645   -1.7174936469   -4.0559028095
     C     5.3128871688   -0.6917539947   -4.5795970979
     C     5.7434680540   -0.5505112863   -5.9110858742
     C     6.1004825232    0.7471227386   -6.3619340692
     C     6.2923145920    1.0120898786   -7.6870574211
     N     6.2097273567    0.0586869870   -8.6434529770
     C     6.0475934610   -1.2664410323   -8.2781568303
     C     5.8652374417   -1.6052493632   -6.9064813770
     C     5.8795049533   -2.9747606866   -6.5684526159
     C     5.9580619706   -3.9622455182   -7.5302021100
     C     6.0338952117   -3.6076596100   -8.8826744814
     C     6.0942387638   -2.2785476716   -9.2546522326
     C     6.3593604842    0.4297476548  -10.0449703401
     C     4.4238599949   -0.9530363322   -1.6461405145
     O     5.1726914066    0.0229507923   -1.6318799540
     H     3.0928313393    1.0251915519    1.8529710294
     H     1.8963061647    0.0876041820    0.9365133187
     H     2.9967821185    1.2006722998    0.0896070405
     H     3.8682962085   -1.3411836699    1.5936615522
     H     4.9503466479   -0.2255722917    0.7298627333
     H     4.1608342612   -2.4843670982   -4.7362323249
     H     5.5111634603    0.1531367948   -3.9261614153
     H     6.1330443589    1.5732792494   -5.6594968848
     H     6.4881639561    2.0173105612   -8.0420208052
     H     5.8728932566   -3.2540516507   -5.5217209627
     H     5.9771398238   -5.0072087275   -7.2359644336
     H     6.0825252812   -4.3771535820   -9.6478145279
     H     6.2003446392   -2.0224226980  -10.3020788344
     H     6.4530347095    1.5134931230  -10.1082090085
     H     5.4815803231    0.1147916706  -10.6157886474
     H     7.2549845107   -0.0319352847  -10.4706783004
