18
-4.5573558396176787e+02 frame 21   xyz file generated by TeraChem
     N     1.0856768724    2.1157062710    0.6326412717
     N     2.4474141425    2.0936808883    0.5795949800
     C     3.0077822599    1.1148003464   -0.0321734938
     C     4.4572158775    1.0587727224   -0.2150940852
     C     5.3066111663    2.0828910129    0.2281608382
     C     6.6818867538    2.0159298273    0.0499663395
     C     7.2394091530    0.9060213257   -0.5873084148
     C     6.4211377057   -0.1238577446   -1.0382744210
     C     5.0385901349   -0.0534315558   -0.8557847578
     O     4.2074872749   -1.0396592148   -1.2828963490
     H     0.7780091847    2.6038394367    1.4654349887
     H     0.6419172624    1.1988046286    0.5651676983
     H     2.4153978917    0.2893895773   -0.4403333704
     H     4.8564060737    2.9406739911    0.7196724626
     H     7.3172236337    2.8235497257    0.4023497682
     H     8.3138450858    0.8392202922   -0.7361770235
     H     6.8486891118   -0.9915813907   -1.5367426734
     H     4.7329514491   -1.7417705086   -1.6963536537
