13
-3.0688410844113577e+02 frame 23   xyz file generated by TeraChem
     C     0.9022451112   -0.0324347334    0.1610933222
     C     2.4234335165    0.1120418988    0.0791107149
     C     2.8190578693    1.5865310060    0.3638179868
     O     2.4245553050    2.4291622981   -0.4846158835
     O     3.4738593040    1.8237156814    1.4099827134
     C     3.1230537132   -0.8897308917    0.9873448810
     H     0.4121888438    0.6824890888   -0.5072323191
     H     0.5492418110    0.1632163422    1.1827094316
     H     0.5768599430   -1.0437247666   -0.1137961543
     H     2.7150270946   -0.0889580157   -0.9628368046
     H     2.8647158189   -0.7029377469    2.0357013775
     H     4.2124943206   -0.8119031429    0.9029343917
     H     2.8341075913   -1.9199674023    0.7414263924
