60
-1.6814592079663103e+03 frame 58   xyz file generated by TeraChem
     C     1.6019457810    0.1086437383    0.1749910124
     C     1.6260914092    1.5029703693   -0.4275819652
     N     0.4715336378    2.3118566119   -0.0068009923
     C     0.6418151819    3.0038865390    1.2170628315
     O     1.7053169778    2.8354933395    1.8190715417
     C    -0.4309160335    3.8536249424    1.6443171064
     C    -0.4483239292    4.6754262884    2.7929525892
     C     0.3777772418    4.9735346085    3.8747647188
     C     1.6360892044    4.4562632273    4.2106005026
     C     2.3736681697    4.8083105773    5.3412183523
     C     3.5904637594    4.1634108431    5.6189110094
     N     4.2974512769    4.4498006794    6.7304484109
     C     3.9077257185    5.4390996027    7.7252243891
     C     3.0428643407    6.5006491722    7.0743649125
     C     1.8879037957    5.8581706351    6.3170499438
     C     5.4596023512    3.6731549456    6.8321392360
     C     5.5394027104    2.8438107251    5.7163641333
     C     4.3364010746    3.0801526403    4.8296820047
     C     4.7880188434    3.5856626042    3.4474270309
     C     3.5235763379    1.7776535810    4.7086582392
     C     6.6109800882    1.9775303326    5.5779230644
     C     7.5917637144    1.9577661427    6.5757497130
     C     7.4904416345    2.7919573056    7.6895457272
     C     6.4149226550    3.6697320563    7.8404596662
     C    -1.6395905779    3.9195913307    0.8468888147
     O    -2.6129515587    4.6246555809    1.1078843075
     N    -1.7049720348    3.0980737838   -0.3007316021
     C    -0.6746912382    2.3210180201   -0.7534503360
     S    -0.8125434083    1.4121216514   -2.1723566718
     C    -2.9734088424    3.1630545820   -1.0420491938
     C    -2.9924967108    4.2974183192   -2.0520543424
     H     2.4798627371   -0.4532866715   -0.1612440630
     H     0.7053688750   -0.4366506450   -0.1359708391
     H     1.6244753577    0.1597946006    1.2675016928
     H     1.6115566172    1.4624215972   -1.5158746262
     H     2.5128254831    2.0470982434   -0.1030035172
     H    -1.3878705857    5.2256401135    2.8271045474
     H    -0.0572327293    5.7022168316    4.5546770605
     H     2.0327575459    3.7186029886    3.5279781299
     H     4.8202517331    5.8745165751    8.1408095481
     H     3.3735356838    4.9305053862    8.5375657319
     H     3.6589507667    7.0904724931    6.3849633882
     H     2.6700874415    7.1795140885    7.8470056095
     H     1.3354589655    6.6362147317    5.7812375632
     H     1.1814614108    5.4104519975    7.0306194865
     H     5.3408117648    4.5260831224    3.5364775139
     H     3.9387460646    3.7354545027    2.7766077322
     H     5.4496026183    2.8389128528    2.9959931344
     H     3.1705395564    1.4427164513    5.6890695689
     H     4.1694128600    0.9975525608    4.2921062901
     H     2.6658105592    1.8960194393    4.0433993883
     H     6.6910843460    1.3229363191    4.7135178634
     H     8.4387439521    1.2839600548    6.4832898334
     H     8.2582986313    2.7606015910    8.4574533266
     H     6.3365083498    4.3119978864    8.7119143449
     H    -3.7543984826    3.3021373211   -0.2944592822
     H    -3.1138547756    2.1988483027   -1.5287096452
     H    -2.8573887020    5.2604128873   -1.5509294086
     H    -3.9571934243    4.3119132711   -2.5703532602
     H    -2.2031472408    4.1721554948   -2.8000202141
