55
-1.2978964111320547e+03 frame 54   xyz file generated by TeraChem
     N     3.4963074536   -3.5378628772   -1.0363633366
     C     2.5484593232   -2.9137719661   -0.7684590905
     C     1.3771178974   -2.1942723726   -0.4445075092
     C     1.3631013830   -0.8053956512   -0.2992355097
     O     0.2072764752   -0.2246684607    0.0054763313
     C     0.3691769434    1.2256835218    0.1179306121
     C     1.8452051956    1.4361052616   -0.1638949270
     C     2.3908778395    0.1625846033   -0.4178358405
     C     3.7437228239   -0.0753656520   -0.7302239264
     N     4.8727958382   -0.2108363539   -0.9852366933
     C     2.5541939532    2.6311815801   -0.1790552532
     C     2.0480028071    3.9049313926    0.0829275688
     C     2.8161879446    5.0655770085    0.0536527296
     C     2.2722253555    6.3182916758    0.3303780795
     C     3.0268111968    7.4936378393    0.3124642048
     C     2.6665302178    8.8135690373    0.5691269637
     N     1.4616848870    9.3331375358    0.8801027608
     C     0.2231107030    8.5916652967    0.9907321825
     C     1.5460315999   10.7261270173    1.0852208947
     C     2.8642563317   11.1348476539    0.8868725730
     C     3.6995519888    9.9360287735    0.5211527555
     C     4.2807457858   10.0749376154   -0.8963454697
     C     4.8267775276    9.6944157335    1.5369628603
     C     3.2081574453   12.4687009216    1.0293003095
     C     2.2115373096   13.3865925100    1.3746240896
     C     0.8972164519   12.9621159747    1.5700274182
     C     0.5389420346   11.6194545480    1.4289160921
     C    -0.5395976286    1.8322000337   -0.9431810121
     C    -0.0401950490    1.5830130611    1.5402327239
     C     0.1817375462   -2.9288170270   -0.2653701660
     N    -0.7985243239   -3.5428326606   -0.1194964637
     H     3.6151272188    2.5600285449   -0.4164243941
     H     0.9949771124    4.0232607822    0.3311425992
     H     3.8754380567    4.9918403068   -0.1916254714
     H     1.2142064021    6.3399755949    0.5733408081
     H     4.0805322517    7.3710491879    0.0701474294
     H     0.2762920247    7.8775224478    1.8183435808
     H     0.0195465174    8.0598915099    0.0568174667
     H    -0.5956772831    9.2836535243    1.1797009323
     H     3.4893418762   10.2336353725   -1.6354314712
     H     4.8459148706    9.1789655178   -1.1729461075
     H     4.9617949648   10.9319072103   -0.9254895748
     H     4.4306349008    9.5810015030    2.5507713650
     H     5.5143941495   10.5463922052    1.5243013587
     H     5.3926876486    8.7942382888    1.2771691306
     H     4.2332256613   12.7962315857    0.8750368234
     H     2.4621744588   14.4369526791    1.4920628289
     H     0.1318445724   13.6848956005    1.8385346833
     H    -0.4884740251   11.3087432729    1.5878710826
     H    -0.2406042799    1.4938287157   -1.9394593444
     H    -0.4911889200    2.9234901257   -0.9150405982
     H    -1.5722022728    1.5237332973   -0.7543623864
     H     0.6236129748    1.0991986738    2.2624725789
     H    -1.0664519255    1.2464982211    1.7160004189
     H     0.0003112667    2.6636477430    1.6959299525
