64
-1.7587805224736599e+03 frame 65   xyz file generated by TeraChem
     C    -1.5227053172   -0.4995832884   -0.0207881333
     C    -0.1659159575   -0.1690373914   -0.6203132228
     N     0.0232591224    1.2775513195   -0.8000960762
     C     0.5441215222    1.9558124444    0.3310755420
     O     0.7740844482    1.3035447710    1.3490912063
     C     0.7675188185    3.3663003034    0.1860930045
     C     1.2988347649    4.1650418054    1.2107404485
     C     1.7015747559    3.8156787386    2.4925191637
     C     2.1918843683    4.7883966465    3.3676850982
     C     2.6144051405    4.5518297639    4.6739870359
     C     3.0791939597    5.5854586375    5.4850977488
     C     3.5199755082    5.4711688660    6.8087653786
     C     4.0023689849    6.5817661430    7.5104745509
     N     4.4635176809    6.4687768634    8.7765459619
     C     4.5036495761    5.2228301374    9.5283004321
     C     3.4188360808    4.2899576589    9.0256113400
     C     3.5053524512    4.1321749437    7.5127302996
     C     4.9163744151    7.6931380959    9.2820882216
     C     4.7298148116    8.6748629559    8.3109524657
     C     4.1327109579    8.0452117410    7.0707928474
     C     2.7685046335    8.6842933977    6.7590779935
     C     5.1162221762    8.2103543208    5.8972227441
     C     5.0933986170    9.9845211868    8.5744379128
     C     5.6470250889   10.2899625148    9.8228699491
     C     5.8325975062    9.2925318655   10.7805894863
     C     5.4702878682    7.9679079116   10.5265087589
     C     0.4337333188    4.0321743973   -1.0482665755
     O     0.6056922260    5.2320940174   -1.2599162127
     N    -0.1401421173    3.2378865408   -2.0667628698
     C    -0.3369401243    1.8856090766   -1.9721326256
     S    -0.9991119937    1.0036860100   -3.2543778852
     C    -0.4933953673    3.9611947237   -3.2965625201
     C     0.6612963489    4.0188450394   -4.2826474039
     H    -1.6151697707   -1.5835107647    0.1057672816
     H    -2.3327463757   -0.1593177935   -0.6733152868
     H    -1.6349900635   -0.0280865203    0.9599373394
     H    -0.0401198322   -0.6385728374   -1.5949653088
     H     0.6351212429   -0.4978739637    0.0416704608
     H     1.3989539774    5.2153843141    0.9368259563
     H     1.6320396535    2.7842408411    2.8210490832
     H     2.2428773067    5.8158489008    3.0001919366
     H     2.5743948762    3.5321084843    5.0505766832
     H     3.1001173304    6.5672032831    5.0218392440
     H     4.3582225268    5.4623853183   10.5848526756
     H     5.4987052769    4.7738851200    9.4154300044
     H     2.4390088201    4.6976273746    9.3022606621
     H     3.5245163834    3.3205420689    9.5213886385
     H     2.6520130912    3.5409711930    7.1661568268
     H     4.4071709360    3.5611378484    7.2497037790
     H     2.0790491792    8.5626904901    7.6004435385
     H     2.3083674939    8.2494659425    5.8683903956
     H     2.9068890775    9.7556509129    6.5800575168
     H     6.0779406577    7.7409954814    6.1270116733
     H     5.2866658077    9.2780184011    5.7244994836
     H     4.7301825749    7.7750985615    4.9720320470
     H     4.9544669416   10.7631541516    7.8283172567
     H     5.9376036780   11.3124346140   10.0465679792
     H     6.2685726406    9.5451017719   11.7431762307
     H     5.6233430679    7.1955549143   11.2735732929
     H    -0.7772908909    4.9659049121   -2.9840470602
     H    -1.3597541608    3.4638721992   -3.7307333294
     H     1.5208969099    4.5310502547   -3.8400630724
     H     0.3545765588    4.5725893728   -5.1764790395
     H     0.9663433660    3.0136763587   -4.5896902548
