70
-2.0412270036924192e+03 frame 98   xyz file generated by TeraChem
     C     9.5065667343   -3.5666488658    2.0379934114
     C    10.1387621434   -2.5200494936    2.9400195010
     N     9.6320000863   -1.1694221824    2.6602087775
     C     8.5489272829   -0.6798541556    3.3334152371
     S     7.7450051119   -1.6041698607    4.5069228764
     N     8.1432547096    0.5839777107    3.0175678183
     C     6.9954754567    1.1888253040    3.7085180331
     C     5.6820964246    0.9209552138    2.9928843149
     C     8.7183833268    1.3902013911    1.9930718828
     O     8.1921168354    2.4866392503    1.7880008262
     C     9.8389459437    0.8470215197    1.2938709997
     C    10.5499124770    1.4670376219    0.2256666038
     C    10.5621453424    2.6779480515   -0.4406802168
     C     9.7989421275    3.8500472524   -0.2245489195
     C     9.8848194314    5.0379983116   -0.9287222391
     C    10.7448802004    5.2954136104   -2.0177555680
     C    10.7806267789    6.5040333555   -2.6733580652
     C    11.5890917344    6.8591798752   -3.7779193722
     N    11.6696943096    8.1376120887   -4.2509296005
     C    11.0447576887    9.2817702741   -3.6644166535
     C    11.5532939385    9.8019737297   -2.4753454715
     C    10.9555489419   10.9290098297   -1.9193290369
     C     9.8698177974   11.5302964774   -2.5546511857
     C     9.3749928946   11.0045638811   -3.7469038195
     C     9.9600363764    9.8723904609   -4.3087629454
     C    12.5195863382    8.1804274816   -5.3479147174
     C    12.9754902270    6.8747559101   -5.5493695265
     N    12.3842115663    6.0845608137   -4.5688822552
     C    12.5518473231    4.6654132263   -4.4986691026
     C    13.6912706772    4.1455854478   -3.8891974842
     C    13.8566226884    2.7637521176   -3.8337152829
     C    12.8915758712    1.9213599920   -4.3838152363
     C    11.7607554949    2.4562722178   -5.0003702388
     C    11.5873369290    3.8357102242   -5.0663565978
     C    13.8550570605    6.5560121825   -6.5768559681
     C    14.2656071127    7.6054370374   -7.3938645345
     C    13.8138121737    8.9178568827   -7.1873831177
     C    12.9305822469    9.2321011006   -6.1588808557
     C    10.3088790409   -0.4762646124    1.6270757962
     O    11.2532751820   -1.0455771995    1.0746501741
     H     9.9107046167   -4.5556232195    2.2793707857
     H     9.7277501609   -3.3517044016    0.9882771255
     H     8.4210235142   -3.5965322312    2.1735974152
     H    11.2157836428   -2.4787525109    2.7796022976
     H     9.9417679592   -2.7323799689    3.9898416065
     H     7.1956224729    2.2591014871    3.7480609673
     H     6.9794449931    0.7899877257    4.7219933990
     H     5.7052309219    1.3295996330    1.9783372432
     H     4.8618070873    1.4008778079    3.5375468482
     H     5.4753453384   -0.1524347186    2.9387345924
     H    11.2981653200    0.7743641035   -0.1569151464
     H    11.2976966269    2.7152435227   -1.2432608244
     H     9.0729867039    3.8025028826    0.5802841518
     H     9.2251461631    5.8489709240   -0.6225164456
     H    11.4092786046    4.4996385885   -2.3388646149
     H    10.1384431505    7.3045256908   -2.3155854466
     H    12.4054180090    9.3250758813   -1.9997202521
     H    11.3432438227   11.3396727443   -0.9916036341
     H     9.4084755666   12.4121581480   -2.1191164371
     H     8.5284694457   11.4723504541   -4.2410723284
     H     9.5826098462    9.4454257330   -5.2334154965
     H    14.4278747055    4.8181299266   -3.4594705466
     H    14.7395261861    2.3469522888   -3.3579324408
     H    13.0226457114    0.8440402333   -4.3350545851
     H    11.0123684879    1.7992887371   -5.4338176847
     H    10.7136026566    4.2711810637   -5.5423597668
     H    14.2041973833    5.5400221162   -6.7297579279
     H    14.9531407753    7.4021498396   -8.2094414795
     H    14.1609614089    9.7089038595   -7.8453861747
     H    12.5777985658   10.2451363859   -5.9954779291
