53
-1.9825730819771948e+03 frame 78   xyz file generated by TeraChem
     C     4.8867045309   -1.5012587775    0.7423215547
     N     3.6114907085   -0.9750273735    1.1919071741
     C     2.6122921898   -0.8638246105    0.1230293973
     C     3.0467927575    0.1435088483   -0.9420960413
     O     3.7901074788   -0.2361771188   -1.8599254421
     C     2.7183256782    1.5262826475   -0.7025755533
     C     3.4513873528    2.5835524575   -1.3328824776
     O     3.2993510562    3.8271809580   -0.9516257448
     N     4.2931550765    2.3533998127   -2.3166772804
     C     1.7684821218    1.8731288865    0.2912673809
     O     1.6616511240    3.0151337145    0.7935721791
     C     0.7304315158    0.8434166213    0.7335938181
     C     1.1941354969   -0.6351933765    0.6785402358
     C     0.2284136471   -1.5578235780   -0.0720165455
     C    -1.2328140205   -1.2939994811    0.2668032094
     C    -1.5650770075    0.1152405397   -0.1251422211
     C    -2.8541393318    0.4550636004   -0.4739332096
     O    -3.1718943239    1.6932562281   -0.8459092703
     C    -3.9467282349   -0.5090118520   -0.4142575965
     C    -3.6149224676   -1.8828418733   -0.3125358146
     C    -2.1595229236   -2.2925342415   -0.4304706798
     O    -1.8391594046   -2.5028147562   -1.7977699973
     C    -4.6434013706   -2.8106439606   -0.2247805667
    Cl    -4.3083729039   -4.5233181535   -0.1428028322
     C    -5.9822591457   -2.4119630212   -0.2086538387
     C    -6.3057400333   -1.0726586534   -0.3063488560
     C    -5.3018131295   -0.1049253527   -0.4206515495
     O    -5.7080353174    1.1711854619   -0.5080877773
     C    -0.5719501538    1.1430355664   -0.0618614064
     O    -0.7837610103    2.3059428259   -0.4661808379
     O     0.3595812478    1.1413680505    2.0722012908
     C     3.7850506003    0.1788420435    2.0547971265
     H     5.4913281809   -1.7518877811    1.6210815551
     H     5.4668600434   -0.7986584009    0.1193916788
     H     4.7252627471   -2.4140911256    0.1595772279
     H     2.6232728482   -1.8364652854   -0.3818033954
     H     2.6569391461    3.8076980459   -0.1697012261
     H     4.8350851039    3.1067734539   -2.7186972691
     H     4.4263664271    1.3789964825   -2.5898113604
     H     1.2127078462   -0.9551220762    1.7266206782
     H     0.3629816012   -1.4407994453   -1.1548891158
     H     0.4892140695   -2.5946589113    0.1703433347
     H    -1.3829413604   -1.4270082743    1.3508579770
     H    -2.3074030083    2.2285216123   -0.7967043218
     H    -2.0187290591   -3.2672030650    0.0412864336
     H    -1.9270118533   -1.6535354555   -2.2592449121
     H    -6.7663821553   -3.1578087913   -0.1250331956
     H    -7.3414969512   -0.7482412221   -0.3001339371
     H    -4.9283926255    1.7498371948   -0.6269793615
     H     0.4327737832    2.1146856685    2.1354173709
     H     2.8166429237    0.5299292032    2.4251352629
     H     4.3793393020   -0.1277065615    2.9230799196
     H     4.3046246931    1.0271661384    1.5762018063
