47
-1.3534584060013131e+03 frame 73   xyz file generated by TeraChem
     C     2.7446002057   -7.4102644124   -7.1680913332
     O     3.7061879791   -6.4589530519   -6.7002430478
     C     4.9741687151   -6.8814449312   -6.6777587471
     O     5.3193073717   -7.9870473151   -7.0416107828
     C     5.8988773520   -5.8240099290   -6.1370087346
     C     7.3586699236   -6.2597890506   -6.2069355077
     N     8.2602226311   -5.2798663832   -5.6428389741
     C     8.5378218462   -5.2483342082   -4.3274751096
     O     8.1169251958   -6.0425580236   -3.4970793901
     O     9.3815216775   -4.2240784021   -4.0470008760
     C     9.7198142487   -4.0138698665   -2.6728806111
     C    11.2168049459   -4.0132204675   -2.5205943378
     C    11.8590475735   -2.8463895806   -2.2605654379
     C    13.2938923957   -2.7708829910   -2.1165326405
     O    13.9465396002   -1.7714252453   -1.8917911125
     O    13.9769402260   -3.9537998333   -2.2670704591
     C    13.3564763365   -5.1384974399   -2.5059207544
     C    11.9810058921   -5.2344273843   -2.6427757875
     C    11.3920338270   -6.5106322650   -2.8784178397
     C    12.1754097040   -7.6317931541   -2.9771846615
     O    11.7055238455   -8.8781090474   -3.2006350986
     C    10.3062037416   -9.0398786995   -3.3582433350
     C    13.6027775335   -7.5450474173   -2.8426575043
     C    14.2024236455   -6.2781985147   -2.6013265623
     C    15.6071905264   -6.1895257820   -2.4623962868
     C    16.3876453944   -7.3190801662   -2.5590971028
     C    15.7947016761   -8.5752051548   -2.7979594807
     C    14.4284040529   -8.6862013624   -2.9374125964
     H     1.7810330217   -6.9042837825   -7.1156255908
     H     2.7442601454   -8.2975181721   -6.5300520312
     H     2.9656279442   -7.7031639995   -8.1974744093
     H     5.6131463326   -5.6205494930   -5.0973971418
     H     5.7370237472   -4.8924891829   -6.6917885671
     H     7.6541550918   -6.4334844492   -7.2448168904
     H     7.4921359972   -7.1988523172   -5.6652282816
     H     8.5982845585   -4.5229222910   -6.2204345716
     H     9.2524546711   -4.7914081293   -2.0625535281
     H     9.3159259404   -3.0410131188   -2.3821286292
     H    11.3196159691   -1.9104792355   -2.1596316028
     H    10.3141508707   -6.5815447845   -2.9661340570
     H    10.1472005674  -10.1043092288   -3.5342976456
     H     9.9361822801   -8.4647709393   -4.2149417499
     H     9.7674731021   -8.7314650517   -2.4545908312
     H    16.0578016760   -5.2196384004   -2.2793789180
     H    17.4659443198   -7.2427045496   -2.4507319857
     H    16.4196264892   -9.4608769320   -2.8723162881
     H    13.9681203443   -9.6511014396   -3.1206655737
