30
-8.0361691467451737e+02 frame 41   xyz file generated by TeraChem
     C     1.3029570909    0.2342439392    0.0172806472
     O     2.4951641270   -0.5005001337    0.2338936862
     C     3.0659351393   -1.1044145546   -0.8319960216
     C     2.5713797533   -1.0622388793   -2.1104233196
     C     3.2415855186   -1.7357564786   -3.1719118773
     C     2.7630604316   -1.7215416692   -4.5385127878
     C     1.5173588228   -0.9737015814   -4.8908015429
     C     3.4677163453   -2.3985549872   -5.4840446147
     C     4.6699854485   -3.1317255103   -5.1813005461
     O     5.3502663070   -3.7692108362   -5.9617189430
     O     5.0844330043   -3.1037227610   -3.8679723271
     C     4.4031494902   -2.4385680132   -2.9006357017
     C     4.9511379385   -2.5034671439   -1.5891780430
     C     4.2722728158   -1.8261169336   -0.5386085133
     C     4.8049303366   -1.8816980517    0.7680589347
     C     5.9650266243   -2.5800219821    1.0223735936
     C     6.6367628429   -3.2504533890   -0.0196461351
     C     6.1399625016   -3.2142812312   -1.3027227742
     H     1.0162375641    0.6332565439    0.9908863010
     H     0.5044891319   -0.4127641440   -0.3649120485
     H     1.4695151751    1.0601894392   -0.6844019832
     H     1.6624311387   -0.5170064878   -2.3328690457
     H     1.6138501194    0.0871939544   -4.6311539151
     H     0.6584931561   -1.3636646048   -4.3314331670
     H     1.3020607381   -1.0532584288   -5.9587126434
     H     3.1484255739   -2.4177042573   -6.5207868218
     H     4.2851964225   -1.3650164852    1.5678308745
     H     6.3650966171   -2.6146568177    2.0319616600
     H     7.5509117075   -3.7984410307    0.1911811447
     H     6.6531532745   -3.7285892436   -2.1086644545
