29
-8.7754363796354937e+02 frame 14   xyz file generated by TeraChem
     C     3.2680532403    1.1604012857   -0.4837210390
     O     2.8119423382   -0.1808989617   -0.4273800727
     C     3.3419425036   -0.9853724812    0.5182613631
     C     4.3031951292   -0.5971746721    1.4158473239
     C     4.8042232176   -1.5190798550    2.3793208306
     C     5.8188293072   -1.2014862325    3.3588737074
     C     6.4782313100    0.1264063115    3.4959801550
     O     6.2539917221    1.1070508931    2.8186545823
     C     6.2382333971   -2.1471598949    4.2414534979
     C     5.6982721006   -3.4890422733    4.2421991493
     O     6.0127240819   -4.3890580054    4.9918405145
     O     4.7416961597   -3.7436061545    3.2948355109
     C     4.3066839218   -2.8147910781    2.4014333112
     C     3.3093245723   -3.2528598610    1.4873648893
     C     2.8202205549   -2.3232867371    0.5289259591
     C     1.8313918195   -2.7417693739   -0.3875709402
     C     1.3468600838   -4.0311611651   -0.3536728096
     C     1.8317935236   -4.9509994673    0.5975445574
     C     2.7962919929   -4.5709182694    1.5029559717
     H     2.7139966627    1.6302502773   -1.2970382978
     H     4.3424957561    1.2032111857   -0.6969213978
     H     3.0613318326    1.6863633890    0.4556332159
     H     4.7031583592    0.4066583977    1.4170498392
     H     7.2315858711    0.1601311809    4.3062944585
     H     6.9993986294   -1.9338631579    4.9857307417
     H     1.4611474521   -2.0305601659   -1.1178883135
     H     0.5854914254   -4.3414082738   -1.0639881980
     H     1.4425447039   -5.9650565108    0.6159638858
     H     3.1727483881   -5.2757702435    2.2368075813
