59
-1.3752095253282682e+03 frame 75   xyz file generated by TeraChem
     N     4.7644364752   -3.3783548829    0.7377757764
     C     3.7562865031   -2.8217739189    0.9217895584
     C     2.5166521162   -2.1854340005    1.1503181059
     C     2.3567779421   -0.7989910009    1.0769586459
     O     1.1442529808   -0.3032110993    1.3040295343
     C     1.1509533513    1.1558767078    1.1837410081
     C     2.5946553729    1.4736290061    0.8415899460
     C     3.2762615417    0.2393169801    0.7944291465
     C     4.6481343848    0.0988093763    0.5088306041
     N     5.7873449324    0.0453362781    0.2678835304
     C     3.1649473435    2.7182133095    0.6155630454
     C     2.5131320490    3.9541572480    0.6465032086
     C     3.1486474804    5.1678240769    0.4095417174
     C     2.4700922061    6.3858895007    0.4369752927
     C     3.0584540440    7.6274743928    0.2072396022
     C     2.3307213102    8.8140426847    0.2387122292
     C     2.9069206877   10.0649459314   -0.0034573779
     C     2.3416472226   11.3355476962   -0.0321695708
     N     1.0818541103   11.7226417799    0.2592266789
     C     0.0233250009   10.8631329182    0.7450661038
     C     0.9186034354   13.1091252354    0.0641941668
     C     2.1336290830   13.6569417190   -0.3468086985
     C     3.1612483254   12.5585110885   -0.4366780474
     C     3.7004559714   12.4064598906   -1.8676658709
     C     4.3184610251   12.7868455219    0.5493218572
     C     2.2344796349   15.0150233403   -0.5977841016
     C     1.0989458234   15.8151928490   -0.4359534099
     C    -0.1104817675   15.2511420899   -0.0299960235
     C    -0.2237460756   13.8830296151    0.2274543345
     C     0.1708641719    1.4862000632    0.0658184101
     C     0.7172446277    1.6890294960    2.5427085104
     C     1.4056599652   -3.0023095034    1.4635490142
     N     0.4956833964   -3.6837964571    1.7226851142
     H     4.2303247464    2.7277375620    0.3875410543
     H     1.4474258580    3.9922529702    0.8643297841
     H     4.2164592717    5.1673716669    0.1910356068
     H     1.4003160167    6.3640127271    0.6535536397
     H     4.1261437234    7.6704878790   -0.0075408356
     H     1.2687531234    8.7246306842    0.4466171889
     H     3.9699992388   10.0565734707   -0.2354939953
     H     0.3794486149   10.2871762843    1.6036851550
     H    -0.3148225957   10.1806774069   -0.0409882510
     H    -0.8188903926   11.4737854630    1.0662752362
     H     2.8878731702   12.2346283456   -2.5802857834
     H     4.4034500103   11.5695385061   -1.9280652164
     H     4.2298197983   13.3204200396   -2.1566082797
     H     3.9514564870   12.8818593220    1.5759965765
     H     4.8464271863   13.7080795099    0.2817249379
     H     5.0323283478   11.9578958662    0.5059120556
     H     3.1773409438   15.4522277289   -0.9171270855
     H     1.1583182670   16.8822720527   -0.6301618323
     H    -0.9865734848   15.8827006908    0.0881633153
     H    -1.1747866185   13.4615386421    0.5362832162
     H     0.5040845481    1.0433807471   -0.8771866906
     H     0.0824753301    2.5670847535   -0.0666273085
     H    -0.8150860345    1.0862587220    0.3209829391
     H     1.4280315585    1.3854448048    3.3167333245
     H    -0.2718748320    1.2908166925    2.7886007580
     H     0.6579362341    2.7800011607    2.5298346118
