30
-1.2630478080515529e+03 frame 32   xyz file generated by TeraChem
     C     3.3897336965   -0.4512233136    1.3317224794
     O     2.8338733443    0.6825211488    0.6875977062
     C     3.4324721246    1.1202914004   -0.4407726184
     C     4.5208337972    0.5237184464   -1.0243111821
     C     5.0902822922    1.0567451341   -2.2166627685
     C     6.2359285358    0.4697981728   -2.8814290140
     C     6.8291175771   -0.7610950934   -2.2600627033
    Cl     8.2244245988   -1.4506280122   -3.1369522331
     C     6.7155686321    1.0432141103   -4.0117796359
     C     6.1215731567    2.2279249977   -4.5815872301
     O     6.4875897309    2.8039815035   -5.5858522958
     O     5.0366166651    2.7481113814   -3.9158220482
     C     4.5350068476    2.1912215323   -2.7845227985
     C     3.4047471833    2.8376026988   -2.2110076708
     C     2.8445451169    2.2937713651   -1.0220424754
     C     1.7233522435    2.9257369137   -0.4416351602
     C     1.1780823853    4.0517876210   -1.0186649915
     C     1.7336743226    4.5893570902   -2.1971017490
     C     2.8275317363    3.9948450805   -2.7841942876
     H     2.7766664305   -0.6235546912    2.2169784767
     H     4.4271859544   -0.2636147461    1.6323739306
     H     3.3509852989   -1.3331022783    0.6814272648
     H     4.9584818436   -0.3619755959   -0.5821849699
     H     6.0776666484   -1.5528621861   -2.1981731223
     H     7.1758310479   -0.5420031860   -1.2462356685
     H     7.5681767062    0.6386420025   -4.5434715502
     H     1.3006059145    2.5095102523    0.4661662047
     H     0.3151160350    4.5290463094   -0.5627483637
     H     1.2964498128    5.4778269857   -2.6438956454
     H     3.2591232245    4.4043059748   -3.6913575790
