31
-8.7874934054560094e+02 frame 30   xyz file generated by TeraChem
     C     2.5165291418   -0.8208114591   -0.4329501232
     O     2.3053697690    0.0042688849    0.6995455378
     C     3.1170511253    1.0745569560    0.8534940940
     C     4.1461348440    1.3960603321    0.0070158919
     C     4.9513013578    2.5463170188    0.2479623433
     C     6.0239572974    2.9566982181   -0.6304572636
     C     6.3429621383    2.1690774148   -1.8778693570
     O     6.6618511386    0.8174609914   -1.6137867153
     C     6.7336307316    4.0748304013   -0.3332083107
     C     6.4535783474    4.8809111174    0.8309656558
     O     7.0370898160    5.8916925264    1.1681093497
     O     5.4210756961    4.4503873297    1.6303363480
     C     4.6908383180    3.3375957267    1.3544834073
     C     3.6345837362    3.0359507980    2.2584644892
     C     2.8339990849    1.8876555268    2.0024825959
     C     1.7787858777    1.5781271607    2.8881478329
     C     1.5260078188    2.3754299580    3.9830424858
     C     2.3193533968    3.5128454920    4.2351220875
     C     3.3552480584    3.8388040075    3.3892500245
     H     1.7544057332   -1.5994573135   -0.3833951208
     H     3.5119984340   -1.2795257348   -0.4072496271
     H     2.4021101419   -0.2512015134   -1.3627032261
     H     4.3879810903    0.7726600231   -0.8431655400
     H     7.1494520838    2.6743530827   -2.4252595529
     H     5.4610882617    2.1506895095   -2.5284254694
     H     7.4660645883    0.8082552467   -1.0737124463
     H     7.5457227493    4.4172258581   -0.9665240113
     H     1.1708371920    0.7020939719    2.6901802514
     H     0.7102222693    2.1269422854    4.6562590252
     H     2.1117696221    4.1352908540    5.1010153963
     H     3.9688816477    4.7134858908    3.5777186445
