43
-1.1396227621895678e+03 frame 111   xyz file generated by TeraChem
     C     0.5140371032    0.4484299182   -2.1646471713
     O     0.6780115597    1.8405938831   -2.3732259988
     C     1.9172908147    2.2944223570   -2.6577458746
     C     3.0298405764    1.5011067762   -2.7696465440
     C     4.3029096792    2.0733094936   -3.0578571956
     C     5.5164862726    1.2996117609   -3.1881729026
     C     5.4906776050   -0.1961827215   -3.0351339245
     O     5.0280637883   -0.5684627218   -1.7209362338
     C     5.9369364624   -0.5907472201   -0.7413931986
     O     7.1195100671   -0.4008815237   -0.8836349129
     C     5.2989436568   -0.8375944852    0.6163484875
     N     3.8918027732   -1.3005165216    0.4899460705
     C     6.1059239062   -1.8024784144    1.4662439709
     C     6.6872805587    1.9238028621   -3.4697155825
     C     6.7688015543    3.3555565045   -3.6473805484
     O     7.7696377569    3.9963461236   -3.8948901568
     O     5.5900762725    4.0480570993   -3.5049965651
     C     4.4055543507    3.4440087535   -3.2300684017
     C     3.2738098403    4.3002596938   -3.1296043140
     C     2.0097683128    3.7166454630   -2.8389972006
     C     0.8773956387    4.5528094002   -2.7357238517
     C     0.9942333819    5.9141149524   -2.9149009662
     C     2.2473383829    6.4910013581   -3.2027274671
     C     3.3687374199    5.6998816743   -3.3082482139
    Br     2.5108029137   -0.9897615225    3.4407186683
     H    -0.5431834614    0.3020733716   -1.9412795710
     H     1.1200153788    0.1034730925   -1.3177475349
     H     0.7830454647   -0.1204432559   -3.0624676475
     H     2.9577084153    0.4307022187   -2.6277823195
     H     6.4807043699   -0.6229115611   -3.2016858610
     H     4.7736795343   -0.6529256109   -3.7209616756
     H     5.2470580014    0.1412149374    1.1082911529
     H     3.8340688063   -2.2572241983    0.1281126498
     H     3.3489611050   -0.7026080345   -0.1406334425
     H     6.1232493154   -2.8004061391    1.0160847719
     H     5.6738453297   -1.8673458025    2.4684850626
     H     7.1309293778   -1.4356487558    1.5452462501
     H     7.6178147183    1.3749769912   -3.5660271379
     H    -0.0853628232    4.1053453394   -2.5137604730
     H     0.1152172817    6.5474695473   -2.8337641022
     H     2.3280664042    7.5653809228   -3.3419782947
     H     4.3364293003    6.1381657809   -3.5288226312
     H     3.4181710938   -1.2746694045    1.4348604838
