57
-1.5842405413982096e+03 frame 58   xyz file generated by TeraChem
     C    10.7981148007    0.4796088282    2.3617518473
     O    10.3683401743   -0.8130359602    2.7530736459
     C     9.0930401634   -0.9523220044    3.1746785546
     C     8.1866483844    0.0723742415    3.2694577542
     C     6.8591774935   -0.1739509876    3.7269636129
     C     5.8471375823    0.8525432994    3.8353875360
     C     6.1472035985    2.2748102693    3.4461468410
     O     7.2333755179    2.8213928425    4.2134364414
     C     6.9352113765    3.2666774256    5.4388030989
     O     5.8189505585    3.2926479833    5.9069136503
     C     8.1874071523    3.7085070039    6.1700149734
     N     7.7719909871    4.3415537023    7.3966397845
     C     8.5868013204    5.1761593624    8.0725761868
     O     9.7158601722    5.4872533091    7.7224696439
     O     7.9860978564    5.6150717767    9.1996450786
     C     8.7524114079    6.5352506631    9.9933871671
     C     8.6307459821    7.9497149364    9.4941633966
     C     7.3829310144    8.5817967402    9.4798251964
     C     7.2593237343    9.8906462969    9.0233415300
     C     8.3861399389   10.5859446963    8.5828639638
     C     9.6329464834    9.9645212834    8.5970530384
     C     9.7520326637    8.6500876448    9.0461132496
     C     9.1250418870    2.5187274889    6.4044571215
     C     4.6003533507    0.5248426675    4.2574681942
     C     4.2377667700   -0.8291065721    4.6049362649
     O     3.1482752575   -1.2113990507    4.9808829043
     O     5.2388322260   -1.7654477557    4.5041491184
     C     6.4920721970   -1.4634087293    4.0767138254
     C     7.4044243652   -2.5520197165    3.9968498613
     C     8.7249162521   -2.2928887135    3.5371146097
     C     9.6405779358   -3.3636926198    3.4477798476
     C     9.2610976924   -4.6403582078    3.8009662354
     C     7.9522315308   -4.8954470315    4.2567586686
     C     7.0384120186   -3.8706995255    4.3535063495
     H    11.8367166096    0.3673218328    2.0488143282
     H    10.7410956785    1.1856509509    3.1991072602
     H    10.1995613817    0.8572004082    1.5244568497
     H     8.4707624812    1.0846255548    3.0125577685
     H     5.2617216663    2.9004205703    3.5691799002
     H     6.4893946916    2.3270955010    2.4095707739
     H     8.7017754041    4.4477178428    5.5442318779
     H     6.8422461712    4.1470375933    7.7442165736
     H     9.7961528903    6.2136808516   10.0143876152
     H     8.3249049784    6.4361622807   10.9943584480
     H     6.5047592684    8.0422351662    9.8280123061
     H     6.2848185422   10.3721212712    9.0165648304
     H     8.2910152308   11.6096471046    8.2301079648
     H    10.5138238282   10.5006139073    8.2532989510
     H    10.7226989096    8.1599315326    9.0459231239
     H     8.6233558836    1.7460128218    6.9958336180
     H    10.0040753427    2.8688584988    6.9517804611
     H     9.4501634003    2.0848639462    5.4547661762
     H     3.8180907254    1.2699447963    4.3548955651
     H    10.6470976440   -3.1638719914    3.0967521863
     H     9.9748273913   -5.4562635305    3.7275803470
     H     7.6635176008   -5.9057884385    4.5326768337
     H     6.0291474632   -4.0609899150    4.7033259472
