22
-7.4781226076343034e+02 frame 8   xyz file generated by TeraChem
     C     1.0601349751    0.0090170810    0.0740599688
     C     2.5636375501    0.0354838869    0.0769797948
     C     3.3115475336   -1.1411627505    0.0816801398
     C     4.7087103673   -1.1439107133    0.0851064571
     C     5.4348132033   -2.4602584020    0.0901863937
     C     5.3787885770    0.0951914274    0.0836643185
     C     4.6538517760    1.3006160980    0.0785331858
     C     3.2595432998    1.2430980903    0.0753185004
     C     5.3109448618    2.6566429873    0.0764758830
     S     7.1617295305    0.2137051085    0.0883867722
     H     0.6795386470   -1.0169613363    0.0704517837
     H     0.6547175535    0.5219836676   -0.8063329249
     H     0.6515094949    0.5167308497    0.9560636649
     H     2.7941344889   -2.0988553876    0.0827532971
     H     4.7224781845   -3.2897501212    0.0891078941
     H     6.0723324973   -2.5743210438    0.9770100000
     H     6.0788795974   -2.5775470357   -0.7914453189
     H     2.7052906743    2.1808047433    0.0713043795
     H     6.4025784948    2.6084944715    0.0743072653
     H     5.0093206156    3.2327565441    0.9587793246
     H     5.0058193047    3.2315978795   -0.8053419734
     H     7.4342484568   -1.0991560435    0.0949911888
