42
-9.3671089837418594e+02 frame 39   xyz file generated by TeraChem
     N    -2.3901793651   -6.1613146396   -2.7948029074
     C    -2.3411779453   -5.3258903329   -1.9825937238
     C    -2.2628189448   -4.3148210661   -0.9926091063
     C    -1.0933634496   -4.0824880346   -0.2675251919
     C     0.1131430673   -4.7712932124   -0.3954323758
     C     1.2054336045   -4.4319178376    0.3949566032
     C     2.4694909193   -5.0375541377    0.3757166326
     C     3.5071728008   -4.5682460935    1.1835747325
     N     4.7406028363   -5.1250206650    1.1422185206
     C     5.1088695397   -6.2424109864    0.2850558727
     C     3.8810820177   -7.0799172784   -0.0187266857
     C     2.7469151946   -6.2075137699   -0.5423440028
     C     5.6348593535   -4.4861108289    2.0083888736
     C     4.9597094636   -3.4670991246    2.6773808984
     C     3.5237607873   -3.4197148946    2.2003673628
     C     2.5713483755   -3.6733276397    3.3809821885
     C     3.2548603558   -2.0558826054    1.5387846898
     C     5.6284892137   -2.6882788379    3.6061997244
     C     6.9824408274   -2.9457013140    3.8492805660
     C     7.6445779143   -3.9647657421    3.1641248736
     C     6.9804122392   -4.7571060223    2.2247048127
     C    -3.4273156345   -3.5433072248   -0.7615241975
     N    -4.3860363387   -2.9075451238   -0.5675441218
     H    -1.1432156322   -3.2811101664    0.4685972482
     H     0.1855143405   -5.5711987800   -1.1281581232
     H     1.0449586736   -3.6059632277    1.0816171706
     H     5.8656883858   -6.8323417042    0.8090269912
     H     5.5612634620   -5.8485573360   -0.6339276701
     H     3.5627838859   -7.5939552468    0.8962917147
     H     4.1471901528   -7.8477925197   -0.7511982370
     H     1.8442285632   -6.8186773767   -0.6433776547
     H     2.9912372644   -5.8451598818   -1.5511743034
     H     2.7761908087   -4.6426197079    3.8462628744
     H     1.5223444327   -3.6520047471    3.0738925038
     H     2.7187095241   -2.8918673885    4.1337811498
     H     3.9284516115   -1.8948180169    0.6913462943
     H     3.4303637194   -1.2631720242    2.2735141242
     H     2.2249373620   -1.9667157014    1.1840731241
     H     5.1144292989   -1.8904512156    4.1367784132
     H     7.5230670319   -2.3448098340    4.5749420816
     H     8.6973837286   -4.1487333875    3.3596962335
     H     7.5037568209   -5.5441700555    1.6910406464
