77
-1.8355746611045215e+03 frame 88   xyz file generated by TeraChem
     N     0.8642954083   -2.5251510003   -1.8723165128
     C     0.0680250316   -1.8312582422   -1.3812948800
     C    -0.9399602561   -1.0318886542   -0.7919791822
     C    -0.7211868378    0.2652000333   -0.3498186292
     O    -1.7343829876    0.9302634200    0.1813083243
     C    -1.3121625849    2.2647881664    0.5855736556
     C     0.1484209920    2.3070318067    0.1996384112
     C     0.4644927659    1.0759133060   -0.3552597109
     C     1.7265662908    0.6529550327   -0.8294668009
     N     2.7763927592    0.3261947275   -1.2108207134
     C     0.9110363436    3.4774640976    0.4391698321
     C     2.1949938119    3.6773110956    0.0091950415
     C     3.0245191303    4.8451718402    0.1567639485
     C     4.1101628123    4.9335334997   -0.7385294275
     C     4.9273478917    6.0509545299   -0.8518043167
     C     5.9879570650    6.0467746698   -1.8904351766
     C     6.0871194843    7.0822270652   -2.8307239484
     C     7.0517735377    7.0411785147   -3.8333772411
     C     7.9350559325    5.9655671933   -3.9136255716
     C     7.8444343404    4.9289209912   -2.9865362642
     C     6.8779318593    4.9684809559   -1.9847779759
     C     4.6890818810    7.1580825555    0.0075424277
     C     3.6375276628    7.0445983146    0.9421745660
     C     2.8114144879    5.9373274284    1.0470832436
     C     1.8050246138    5.9357744478    2.1393889109
     C     0.8491273629    6.9559918813    2.2136413862
     C    -0.0679079264    6.9930783113    3.2620418792
     C    -0.0325292442    6.0175021520    4.2559553415
     C     0.9245588882    5.0034359804    4.1964026860
     C     1.8358387727    4.9608925753    3.1460530799
     C     5.5435308693    8.3298583373   -0.0173479129
     C     5.2320598277    9.5320549248    0.5297099319
     C     6.0513704825   10.7233766128    0.5597141642
     C     7.3522161881   10.8074996853    0.0224354310
     C     8.0924317689   11.9707480428    0.0843656040
     C     7.5725678253   13.1410979533    0.6967621605
     C     6.2666434399   13.0621895038    1.2387569903
     C     5.5415039157   11.8881666763    1.1642928590
     N     8.3015760004   14.2918466007    0.7608430935
     C     9.6481547730   14.3329640187    0.2298689477
     C     7.7643462965   15.4522651187    1.4393286406
     C    -2.1526726043    3.2616200304   -0.2007406136
     C    -1.5292871633    2.3690121485    2.0893783263
     C    -2.2307346271   -1.6027825397   -0.6588301806
     N    -3.2871952073   -2.0811197052   -0.5533287129
     H     0.3993268612    4.2697215003    0.9747661070
     H     2.6518605805    2.8952508944   -0.5929614164
     H     4.2774917327    4.1033100535   -1.4211775267
     H     5.3906751940    7.9152285023   -2.7835352192
     H     7.1084003517    7.8492818969   -4.5580181738
     H     8.6888146696    5.9348880329   -4.6959448380
     H     8.5303466426    4.0874738019   -3.0398686084
     H     6.8155387806    4.1616786654   -1.2585491506
     H     3.4980993751    7.8425803127    1.6651185107
     H     0.8206287987    7.7157995135    1.4367533958
     H    -0.8090667919    7.7869698637    3.3015868699
     H    -0.7442280783    6.0481875360    5.0766660662
     H     0.9654436434    4.2465191168    4.9753147690
     H     2.5839103318    4.1732382421    3.1057975651
     H     6.4945542455    8.2116474154   -0.5297350646
     H     4.2525035112    9.6544737911    0.9919793610
     H     7.7991335484    9.9394885290   -0.4556746268
     H     9.0891961986   11.9781915919   -0.3424528455
     H     5.8210950606   13.9254513317    1.7200634814
     H     4.5409289300   11.8625899647    1.5918821502
     H    10.3135079111   13.6287055549    0.7478425685
     H    10.0503287836   15.3385226012    0.3566216570
     H     9.6644703253   14.0932404979   -0.8408826123
     H     7.5509916784   15.2425490950    2.4962907637
     H     6.8366929402   15.8024762178    0.9680531262
     H     8.4936984596   16.2612724947    1.3926365100
     H    -1.9999676034    3.1328535975   -1.2760374483
     H    -1.8763681701    4.2824449653    0.0780577171
     H    -3.2096532384    3.1085139323    0.0355982673
     H    -0.9490255830    1.6071634126    2.6176715616
     H    -2.5919664216    2.2309816587    2.3085403442
     H    -1.2231972153    3.3572375315    2.4432595780
