50
-1.2195369776821422e+03 frame 89   xyz file generated by TeraChem
     O     9.1216881710    2.0725906504   -0.2272519099
     N     7.9614276698    1.8712915240   -0.5607313250
     O     7.3260672001    2.6299486650   -1.2836770785
     C     7.3013782795    0.6833288411   -0.0411153786
     C     7.7727388370    0.2232857728    1.1898037055
     C     7.1732720685   -0.8689709188    1.7928684962
     C     6.1141016521   -1.5098345135    1.1442283238
     C     5.6734901161   -1.0643789240   -0.0906795985
     C     6.2437736082    0.0530216379   -0.7292804473
     C     5.7752916363    0.4386802466   -2.0581305029
     N     4.7472702607   -0.1567055461   -2.5586943639
     N     4.3824197144    0.1700764376   -3.7969859169
     C     3.3224226922   -0.4514723925   -4.4453943647
     C     2.2426380452   -0.9549499006   -3.8002817452
     C     1.7977908185   -0.7859914599   -2.4157842487
     C     2.0372275634    0.4147404400   -1.6778160165
     C     1.5191492216    0.5488267633   -0.4210153857
     C     0.7526073231   -0.5045512725    0.1398871611
     C     0.5406262141   -1.6543439793   -0.6749548738
     N     1.0524630787   -1.7712232842   -1.9301707183
     C    -0.2376177599   -2.7201329497   -0.1574891201
     C    -0.7723684988   -2.6450004440    1.1084345400
     C    -0.5586411006   -1.5034770387    1.9137629944
     C     0.1896343602   -0.4514824454    1.4357946538
     C     3.5099972227   -0.5354967953   -5.9615111351
     C     3.5526611464    0.8908286781   -6.5451832874
     C     4.8226497436   -1.2680957542   -6.2863520048
     C     2.3596569799   -1.2806042251   -6.6408551677
     H     8.5935820320    0.7477192978    1.6651283466
     H     7.5260728399   -1.2176241213    2.7583372908
     H     5.6369353293   -2.3714186314    1.6026051617
     H     4.8741037231   -1.5858286671   -0.6057042570
     H     6.3135592172    1.2046996471   -2.6153985094
     H     5.0143223155    0.7504357684   -4.3426683156
     H     1.5780310428   -1.5838147181   -4.3816173647
     H     2.6070745288    1.2186651085   -2.1299256053
     H     1.6780307770    1.4586149536    0.1540022390
     H    -0.3945898896   -3.5911954899   -0.7880295007
     H    -1.3655733605   -3.4694477470    1.4954859186
     H    -0.9891062563   -1.4595270279    2.9104892296
     H     0.3592312487    0.4335010757    2.0452322289
     H     4.3970508922    1.4833376715   -6.1744056197
     H     2.6283525601    1.4324162498   -6.3163519688
     H     3.6563388829    0.8313845822   -7.6344271041
     H     5.7003681809   -0.7508803474   -5.8842942920
     H     4.9464845466   -1.3365261832   -7.3729900724
     H     4.8108136045   -2.2851349461   -5.8783808737
     H     1.3959484957   -0.7930386754   -6.4595048377
     H     2.2946137198   -2.3207890137   -6.3034175624
     H     2.5345453137   -1.2904807720   -7.7219551752
