60
-1.6473552327771890e+03 frame 93   xyz file generated by TeraChem
     C    12.3938391699    1.8072705274    2.8801725736
     O    11.2342458235    1.2075744080    2.3288347047
     C    10.1342694485    1.1325399689    3.1165112706
     C    10.0633140807    1.6146202308    4.4224236470
     C     8.8627225256    1.4832661034    5.1234521521
     C     7.7408177504    0.8903124381    4.5634088324
     C     7.8357538985    0.4001780877    3.2440954238
     C     9.0185736802    0.5221634422    2.5256235989
     O     6.7109223043   -0.1798807294    2.7605713265
     C     6.7301634807   -0.6736241067    1.4316173214
     C     6.4331304276    0.7278814298    5.3045912431
     N     6.3328703846    1.5465236735    6.4975358091
     C     6.0662062839    2.9058832707    6.5530144020
     N     5.9343327742    3.5966162286    5.3895336240
     C     5.5807023535    4.9326818308    5.1989224443
     C     5.2375382028    5.8049681962    6.2388719904
     C     4.8806622395    7.1212251249    5.9535304490
     C     4.8671186087    7.5681577701    4.6387457997
     C     5.2088747031    6.7139488239    3.5940939231
     C     5.5633620817    5.4028510069    3.8776455211
     I     4.3133671266    9.5783847985    4.1989196555
     N     5.9697896337    3.3770781045    7.7757814637
     C     6.1835396651    2.2792799437    8.5859013475
     C     6.4214583995    1.1238448384    7.8021145890
     C     6.6623663186   -0.1349353053    8.3455248203
     C     6.7148427348   -0.2071608005    9.7286289073
     O     6.8121327322   -1.5012274977   10.2485824941
     C     6.9203157528   -1.7017319998   11.6351350094
     O     6.6218400490   -2.7757640415   12.0757473641
     C     7.4265554184   -0.4208259544   12.1920021847
     C     6.3942572829    0.4843148981   11.9267427361
     C     6.4967593269    0.9521213210   10.5520393747
     C     6.1926960316    2.1848921450    9.9711706288
     C     5.0945483979    0.4495474512   12.6458773598
     C     8.8076308907   -0.0366520047   11.7900847168
     O     9.1794300880    1.1378154710   11.7872086030
     N     9.6625387776   -1.0641739076   11.5267785100
     H    13.1541987819    1.7637845939    2.0991043791
     H    12.7445288371    1.2584495280    3.7621240068
     H    12.2096681737    2.8531779051    3.1527458248
     H    10.9132181904    2.0883806719    4.8993473124
     H     8.8103432695    1.8615669984    6.1411280354
     H     9.1102538477    0.1562018430    1.5093759407
     H     5.7371801850   -1.0875808174    1.2521934969
     H     7.4831098218   -1.4613245078    1.3135503065
     H     6.9278997158    0.1307195734    0.7134321077
     H     6.2816253016   -0.3120235906    5.6122318176
     H     5.5869685471    0.9637762774    4.6487185481
     H     6.1852418386    3.0976775122    4.5462655232
     H     5.2545242127    5.4555450078    7.2633849457
     H     4.6165109573    7.7845930284    6.7708408837
     H     5.2003478920    7.0530490064    2.5632817235
     H     5.8269158471    4.7329676353    3.0622000250
     H     6.7948067186   -1.0267795531    7.7421879567
     H     6.0127555677    3.0540969474   10.5965709001
     H     5.0372711362   -0.4264715930   13.3028066755
     H     4.2327849565    0.4931061918   11.9737073502
     H     5.0432813082    1.3330584812   13.3018462180
     H     9.4446394740   -2.0107112692   11.8062952436
     H    10.6469179046   -0.8368310481   11.4804954782
