56
-1.5221958745208940e+03 frame 105   xyz file generated by TeraChem
     C     0.4620316161   -2.0759647664    0.1802362462
     O     1.8594875068   -2.1959445042    0.3842453135
     C     2.3537022318   -1.8424026374    1.5943166887
     C     1.5795994613   -1.3813731206    2.6639830964
     C     2.1937884889   -1.0587632691    3.8716168343
     C     3.5741976866   -1.1721069682    4.0217730784
     C     4.3480366344   -1.6080202287    2.9413517937
     C     3.7413494175   -1.9558577383    1.7449680734
     N     4.1684208204   -0.7852437629    5.2548793936
     C     5.2369470876   -1.3643435837    5.8511390584
     N     6.1303310480   -0.6861492411    6.5243062630
     C     6.9778434189   -1.6420276230    7.0640806022
     C     6.5360938084   -2.9728540220    6.6514992898
     N     5.4338990794   -2.7526797828    5.8653607064
     C     4.4832219901   -3.7949666378    5.5198398849
     C     4.9233649366   -4.7150791564    4.4016335984
     C     6.0931580304   -4.5088923852    3.6706164677
     C     6.4458208007   -5.3820324495    2.6414512326
     C     5.6320881635   -6.4688675922    2.3339819208
     C     4.4630423255   -6.6824215045    3.0651304185
     C     4.1137165732   -5.8131374713    4.0936519439
     C     7.1002809316   -4.1454524143    7.0572374906
     C     8.2230220654   -4.0804312145    7.9567426727
     C     8.8374426126   -2.7030635544    8.2389606243
     C     8.0546470559   -1.4990304666    7.8621243996
     C     9.5757147717   -2.6445392769    9.5777734937
     C     9.0094654651   -2.6513735641   10.9351591129
     C    10.8315909760   -2.5934137636    9.0583679694
     C    10.3358586971   -2.6496734701    7.6855330242
     O    10.8061208519   -2.6452144493    6.5757012770
     O     8.7355416836   -5.0745548857    8.4784576182
     C    12.1821293103   -2.5114167262    9.6597649626
     O    12.3511211140   -2.4553169075   10.8766784343
     N    13.1775944378   -2.5021680120    8.7524240564
     H     0.2812767277   -2.3961509859   -0.8466954554
     H     0.1296278778   -1.0382984533    0.3033634444
     H    -0.0980457920   -2.7212098128    0.8674678257
     H     0.5037330213   -1.2803169417    2.5746029980
     H     1.5917687485   -0.7170635564    4.7092376064
     H     5.4283224461   -1.6679632477    3.0365886011
     H     4.3337213017   -2.3036885707    0.9037121390
     H     4.0875857556    0.1969190653    5.4944221135
     H     3.5366012921   -3.3144520190    5.2609464536
     H     4.2974559148   -4.3833724257    6.4276621176
     H     6.7321512742   -3.6621208521    3.9052191246
     H     7.3605047905   -5.2086832449    2.0804610650
     H     5.9065566552   -7.1485072970    1.5316294751
     H     3.8225579839   -7.5298616908    2.8348679465
     H     3.2024182342   -5.9845940968    4.6633501517
     H     6.7063813759   -5.1192103760    6.7845863495
     H     8.3997797886   -0.5215112719    8.1889683546
     H     8.2804642680   -1.8381140609   11.0404057606
     H     9.7874081572   -2.5565606686   11.6937519731
     H     8.4572663101   -3.5878264230   11.0877307481
     H    12.9888101839   -2.5423147928    7.7596733319
     H    14.1375832317   -2.4445407582    9.0626040212
