59
-2.0209042852158595e+03 frame 84   xyz file generated by TeraChem
     C     1.1935318326   -2.2901480305    0.9655101739
     O     2.3271395394   -1.6767167319    1.5564514575
     C     3.5231834016   -1.8425090047    0.9448345342
     C     3.7221374909   -2.5931579619   -0.2185137284
     C     5.0066010291   -2.6829420448   -0.7530511280
     C     6.0884668679   -2.0399307640   -0.1643276528
     C     5.8798714881   -1.3089441435    1.0117336281
     C     4.6069908044   -1.2111899113    1.5645043781
     N     6.9333000887   -0.6138085697    1.6533156643
     C     8.2615604843   -0.8882371995    1.5594472225
     N     9.1751988349    0.0378194759    1.4462448847
     C    10.3834120062   -0.6442987369    1.5029038084
     C    10.1279984622   -2.0760376410    1.6548112137
     N     8.7604721864   -2.1923394323    1.6645575031
     C     8.0557209264   -3.3663536987    2.1615365383
     C     7.8829248587   -3.3353415856    3.6852660650
     C     7.1682033216   -4.5686224783    4.1697295180
     C     7.8845049682   -5.6833525534    4.6143999060
     C     7.2335674931   -6.8419958127    5.0293593736
     C     5.8438387711   -6.8809414499    4.9930440261
     C     5.1011413656   -5.7895984960    4.5536969476
     C     5.7717087275   -4.6408457867    4.1443013038
    Cl     5.0133970462   -8.3276193779    5.5138117794
     C    11.0951823793   -3.0241913707    1.8170766461
     C    12.4693135770   -2.5963766420    1.8271261113
     C    12.7695749006   -1.1446707574    1.4368028186
     C    11.6458703128   -0.1758711520    1.4450167332
     C    14.1145998725   -0.6516032214    1.9712029339
     C    14.4878199954   -0.3250529937    3.3556532932
     C    14.7617330219   -0.6407293654    0.7750449576
     C    13.5824883503   -1.1159123369    0.0570616120
     O    13.2864408912   -1.3782933324   -1.0807874462
     O    13.4141728782   -3.3442021499    2.0949435553
     C    16.1413121732   -0.2885391464    0.3688770698
     O    16.9784849545    0.0984631523    1.1829274318
     N    16.3727552332   -0.4313585277   -0.9501620477
     H     0.3469445801   -2.0285570392    1.6016462718
     H     1.3024287641   -3.3805486701    0.9325991549
     H     1.0202640342   -1.9106744067   -0.0482559381
     H     2.8980892824   -3.0982018905   -0.7094154812
     H     5.1597184795   -3.2549676164   -1.6642347450
     H     7.0754927760   -2.0893904600   -0.6146187316
     H     4.4433341777   -0.6459652234    2.4775141650
     H     6.7572818580    0.3691476325    1.8298809324
     H     8.6338794001   -4.2428983029    1.8570742805
     H     7.0857874540   -3.4383172053    1.6678503294
     H     7.3149401201   -2.4376166709    3.9551967309
     H     8.8695669385   -3.2613051741    4.1561694522
     H     8.9712359989   -5.6474623261    4.6430197599
     H     7.7984493252   -7.7007296917    5.3783650513
     H     4.0167144158   -5.8349960932    4.5351353631
     H     5.1949444499   -3.7844183731    3.8014499341
     H    10.8785566681   -4.0684626441    2.0181340527
     H    11.8595928441    0.8842915660    1.3367923943
     H    13.8054945064    0.4348897833    3.7571975137
     H    15.5178705617    0.0285198780    3.4162609111
     H    14.3645824478   -1.2181436360    3.9817605883
     H    15.6543749309   -0.7594510769   -1.5818268970
     H    17.2877301313   -0.2194657591   -1.3233556864
