39
-8.4255521775370721e+02 frame 36   xyz file generated by TeraChem
     C    -1.0668589095   -3.1567872786    0.9293212616
     C    -1.0005777926   -1.6909337131    0.7160497107
     C    -0.0044088523   -0.8377280200    0.3503403360
     C    -0.5789788522    0.4731234240    0.3176314502
     C    -1.8850922437    0.3319024064    0.6691456623
     O    -2.1515228615   -0.9857293174    0.9161909576
     C    -3.0224294187    1.2759772719    0.8163523740
     N    -4.0251136216    1.0939056919   -0.2353094361
     C    -5.1451078862    1.9716615548   -0.0590883065
     C    -5.9937988809    2.2763605167   -1.2589393655
     C    -5.0754529037    3.3273826157   -0.7059519242
     N    -5.6647942955    4.4298638760   -0.0037674198
     C    -4.7034955992    5.0790706984    0.8902547418
     C    -5.2990993391    6.2375745609    1.6041340345
     C    -5.6518157693    6.4711655191    2.8966659963
     C    -6.1807473101    7.8008778000    2.9410710004
     C    -6.1176397647    8.2871653335    1.6709674437
     O    -5.5792824712    7.3417368255    0.8481412229
     C    -6.4979971485    9.5777898709    1.0476698353
     H    -0.0896114518   -3.6017678300    0.7256546707
     H    -1.8036093524   -3.6261600535    0.2663916397
     H    -1.3475106333   -3.4020207940    1.9608040859
     H     1.0188907979   -1.1133233685    0.1312466463
     H    -0.0854416029    1.4023841721    0.0645163196
     H    -2.6301399069    2.2962316649    0.7422947035
     H    -3.4588318861    1.1737979335    1.8270507543
     H    -4.3525126665    0.1301468080   -0.2068558609
     H    -5.6643863108    1.9495119914    0.9053451863
     H    -7.0595374470    2.4116154540   -1.0983900977
     H    -5.7153942374    1.8092355833   -2.1992823063
     H    -4.1597793170    3.5129577053   -1.2779258761
     H    -5.9925815591    5.1164246526   -0.6807167053
     H    -3.7937696681    5.4069811209    0.3541974697
     H    -4.3832937095    4.3458068615    1.6385032257
     H    -5.5454643990    5.7768389130    3.7199844322
     H    -6.5590910592    8.3303434132    3.8056427048
     H    -6.9416263225   10.2337872882    1.8008216224
     H    -7.2288052759    9.4340244733    0.2428154375
     H    -5.6286407997   10.0885736023    0.6161029988
