35
-1.4248321014322087e+03 frame 50   xyz file generated by TeraChem
    Cl     1.3748410084    0.2719887747   -1.8436440911
     C     2.9942551386    0.1468109887   -1.2048043475
     C     3.4915654173    1.2516330574   -0.4581394086
     C     4.7557209107    1.2285855809    0.0794517288
     C     5.5288158226    0.0704695893   -0.1427599879
     C     5.0166779410   -1.0216361874   -0.8911425542
     C     3.7187562335   -0.9956277351   -1.4416439417
     N     5.9579530705   -1.9838479579   -0.9386068286
     N     6.9588317325   -1.4478391376   -0.2570927662
     N     6.7835431298   -0.2327006206    0.2410441273
     C     8.1617334232   -2.1367556886   -0.0694350183
     C     8.9466814485   -2.1095512260    1.0549722278
     C     8.8362985172   -1.3390653299    2.3181642063
     N     9.9820706736   -2.9655358208    0.8584279973
     N     9.9489660974   -3.4236966258   -0.4412942771
     C     8.7760162025   -2.9891481844   -1.0688233933
     O     8.4159010346   -3.3133603070   -2.1960491552
     C    10.7922104367   -4.4817696385   -0.8348988205
     C    11.0548612313   -4.6831713744   -2.1938276442
     C    11.8967791258   -5.7220747071   -2.5771238577
     C    12.4941085818   -6.5453845881   -1.6240574247
     C    12.2351337702   -6.3281590503   -0.2727053486
     C    11.3810443479   -5.3054603615    0.1291541900
     H     2.8521945194    2.1172573986   -0.3191594058
     H     5.1424934292    2.0670875159    0.6495578995
     H     3.3202625730   -1.8264222260   -2.0133809284
     H     7.7923509714   -1.2780445245    2.6355862006
     H     9.1970013470   -0.3150760956    2.1736123548
     H     9.4275704164   -1.8127942747    3.1060369845
     H    10.9040227667   -2.7661500626    1.2369481804
     H    10.5992005783   -4.0352058722   -2.9320043243
     H    12.0952922561   -5.8780837784   -3.6340277337
     H    13.1570828080   -7.3487803817   -1.9323023114
     H    12.6905378284   -6.9642655291    0.4813586531
     H    11.1641850737   -5.1577731384    1.1825564045
