29
-8.2374556627006859e+02 frame 41   xyz file generated by TeraChem
     F     2.1146825774   -0.3398235990   -0.0536435199
     C     0.7896042741   -0.1747137447   -0.1889851946
     C     0.2141433776    1.0048709609    0.2708454981
     C    -1.1546748810    1.1744659145    0.1345380955
     C    -1.9527020134    0.1777268642   -0.4565120437
     C    -1.3277985638   -0.9972948478   -0.9074294354
     C     0.0426996115   -1.1837207455   -0.7782572218
     C    -3.3928184790    0.3065698921   -0.6214853382
     C    -4.1728262158    1.3423130923   -0.2513715491
     C    -5.6210213732    1.2854457432   -0.5021862199
     O    -6.1582588931    0.3192035290   -1.0382416342
     C    -6.4377234953    2.4724293221   -0.0739186453
     N    -5.7530993854    3.5005400821    0.4415998598
     C    -6.4312022720    4.5734407935    0.8267533272
     C    -7.8168065406    4.6256724884    0.7008317955
     N    -8.5138463583    3.6119589135    0.1952641725
     C    -7.8467229703    2.5185922040   -0.2031157537
     C    -8.6885555462    1.4147768423   -0.7620798451
     H     0.8389339789    1.7668476444    0.7259899056
     H    -1.6075036105    2.0936796519    0.4938104225
     H    -1.9308919569   -1.7767725098   -1.3662676815
     H     0.5305801351   -2.0895461008   -1.1237044813
     H    -3.8907567687   -0.5373351846   -1.1000782051
     H    -3.7795022160    2.2295036036    0.2306330872
     H    -5.8684101756    5.4055140814    1.2431732813
     H    -8.3748141805    5.5045037916    1.0171495521
     H    -9.7377589884    1.7134794702   -0.7024362888
     H    -8.5368067672    0.4808508303   -0.2134102172
     H    -8.4251620003    1.2051857902   -1.8032259117
