108
-1.6751816113709665e+03 frame 158   xyz file generated by TeraChem
     C    16.7406237605    3.9121311997   -2.1257920861
     O    16.2720919074    2.6579680413   -2.5653145627
     C    15.2984964925    2.6593805556   -3.6195498738
     C    14.8093265736    1.2068362433   -3.7189297019
     C    14.0240182744    0.6133104775   -2.5756430969
     C    14.1592809637    0.8712360462   -1.2716173052
     C    13.4044358230    0.2129776385   -0.1466865325
     C    12.8619173554    1.2709518551    0.8424106968
     C    11.8081196614    2.1799644368    0.2914751000
     C    11.9012649355    3.5197606687    0.2645140189
     C    10.8975758463    4.4608603606   -0.2472378118
     C     9.5591767219    4.3541696898   -0.0419153326
     C     8.8729321785    3.3924194499    0.7871514966
     C     7.5226743815    3.3132135315    0.8640276465
     C     6.7807824869    2.4042200781    1.7260985935
     C     5.4286490146    2.3544387367    1.7479569429
     C     4.4512805101    3.1572542033    0.9483949028
     C     3.5194412894    4.0114757124    1.8283177623
     C     2.6189597501    3.1819864882    2.6920946461
     C     2.1937487124    3.4297897539    3.9486183787
     C     2.5011198698    4.6306037020    4.7289615102
     C     2.6444344779    5.8934443491    4.2676912101
     C     2.9253725812    7.0275093244    5.1230314189
     C     3.0656904112    8.3113800080    4.7233483811
     C     2.9404658834    8.7414026032    3.2817250726
     C     1.4878463514    8.9751183075    2.8035952837
     C     0.7500143062   10.0418772707    3.5565233038
     C     0.4150233826   11.2749295230    3.1406161433
     C     0.7199418995   11.8319997293    1.7720696065
     C     1.6595428840   13.0495712026    1.7738718572
     C     3.0436713277   12.7447310193    2.3363809899
     C     3.9781392049   13.9532939414    2.4555791854
     C     5.2725229138   13.5564210888    3.1633161078
     C     4.2861137560   14.5875048808    1.0997178982
     C    -0.3348295037   12.2050161149    4.0562263013
     C     3.3605078686    9.3967546711    5.7157285197
     C     1.3465139473    2.4129978709    4.6738417668
     C     7.5750200327    1.4922808882    2.6256446607
     C    11.4551943744    5.6243541336   -1.0213692056
     C    12.3263516530   -0.7685536487   -0.5942142599
     C    14.1384780592    3.6135092837   -3.3445977124
     C    15.9805826617    3.0292034819   -4.9402556842
     H    17.5340884232    3.7066159063   -1.4016270617
     H    15.9589140879    4.4996433007   -1.6261438565
     H    17.1645243587    4.5160423686   -2.9398072611
     H    15.6933845910    0.5792359631   -3.9108097692
     H    14.2003819546    1.1351751236   -4.6288034683
     H    13.2965055630   -0.1395443453   -2.8822367905
     H    14.8953687885    1.6127828826   -0.9624551242
     H    14.1459785955   -0.3590142913    0.4352030709
     H    13.6997823050    1.8727338973    1.2181805161
     H    12.4475336277    0.7304774796    1.7075769174
     H    10.9113906791    1.7074220797   -0.1097017759
     H    12.8353144924    3.9739365615    0.6072992333
     H     8.9236173854    5.1048845975   -0.5150993298
     H     9.4877756579    2.7291190777    1.3915961670
     H     6.9435596141    3.9866779490    0.2339788989
     H     4.9720972705    1.6487903323    2.4440637944
     H     3.8257518964    2.4705536409    0.3569759576
     H     4.9553133189    3.8091085956    0.2289814746
     H     2.9172722464    4.6482886519    1.1617392857
     H     4.1182589361    4.6944647136    2.4433979419
     H     2.2868727654    2.2449594481    2.2387310738
     H     2.5615523872    4.4791841910    5.8099274033
     H     2.5127922081    6.0843059527    3.2048774321
     H     3.0311076690    6.8061849790    6.1866479353
     H     3.3921984383    7.9904771861    2.6224700742
     H     3.5072724227    9.6689257671    3.1330625325
     H     0.9431446653    8.0264256173    2.9063520471
     H     1.5227619320    9.2012320889    1.7325107598
     H     0.4529843306    9.7649165772    4.5701664039
     H    -0.2290964717   12.1352731510    1.3047575014
     H     1.1516123596   11.0601216134    1.1256775785
     H     1.2063190366   13.8697368364    2.3478746524
     H     1.7413305027   13.4101199292    0.7408849482
     H     3.5311665094   11.9790101444    1.7119853872
     H     2.9257029564   12.2930132385    3.3317637128
     H     3.4691698726   14.7076097654    3.0759679234
     H     5.8203404146   12.8093668772    2.5739946366
     H     5.0705908897   13.1219543087    4.1497627978
     H     5.9315989712   14.4217306150    3.3004971852
     H     4.7582262421   13.8553260644    0.4310981161
     H     4.9767858752   15.4317913718    1.2109348695
     H     3.3824244756   14.9590699320    0.6050651683
     H    -1.2762006005   12.5343480555    3.5949673817
     H     0.2423489655   13.1153770270    4.2639316157
     H    -0.5688935324   11.7291675655    5.0137257277
     H     3.4094312484    9.0159559808    6.7408837486
     H     2.5949190181   10.1829404310    5.6728077159
     H     4.3161104383    9.8871381290    5.4824345668
     H     1.1841113378    1.5172984263    4.0666390200
     H     0.3666208149    2.8293345492    4.9412629048
     H     1.8231633426    2.1070376877    5.6147698859
     H     8.2302524994    0.8315246384    2.0438262802
     H     6.9168636663    0.8662553216    3.2350451305
     H     8.2237079944    2.0648035132    3.3004925372
     H    11.9750824398    5.2877806365   -1.9281130039
     H    12.1989828115    6.1662528137   -0.4215741004
     H    10.6726054236    6.3299904900   -1.3163105241
     H    11.5619185506   -0.2808591347   -1.2096714650
     H    11.8281924695   -1.2117701981    0.2754464605
     H    12.7569653428   -1.5835698757   -1.1858468240
     H    13.6631282929    3.3972920779   -2.3835129891
     H    13.3840517878    3.5006432814   -4.1308455794
     H    14.4653966323    4.6586579619   -3.3510221805
     H    16.8096699784    2.3423166246   -5.1426035585
     H    16.3739287094    4.0510111471   -4.9156201098
     H    15.2690936172    2.9696526959   -5.7707404376
