51
-2.5906237383419120e+03 frame 107   xyz file generated by TeraChem
     N     3.1237374378    4.5634665392    1.6732283139
     C     4.0638018100    3.8891201387    1.5881560010
     C     5.2267187835    3.0191718916    1.4844172910
     C     4.8471401469    1.5350001982    1.6667924323
     N     6.0054658071    0.6712582683    1.5706792824
     C     6.4599631263    0.1962148805    0.3699906029
     C     5.8633245222    0.6009736689   -0.8568548477
     C     6.3187212910    0.1247175495   -2.0642720614
     C     7.3964073830   -0.7820346484   -2.1236396544
     C     7.9895624989   -1.1865797068   -0.9158415189
     C     7.5420453068   -0.7163324259    0.3006210503
     N     7.9345981861   -1.3242817772   -3.2766901057
     N     7.4089182898   -0.9301907415   -4.3636587902
     C     7.9622993950   -1.5078484272   -5.4951863579
     S     7.3510199239   -0.9137297137   -7.0182358323
     C     8.3937384491   -2.0031274321   -7.8255322595
     C     9.1182917871   -2.7320415547   -6.9104708469
     N     8.8655983162   -2.4462723301   -5.5967339631
     C    10.0684949587   -3.7949198409   -7.2909533790
     C     9.6880713883   -4.7247626965   -8.2683803212
     C    10.5252746848   -5.7532140785   -8.6791505007
     C    11.7803976664   -5.8637776932   -8.0919675973
     C    12.2069404119   -4.9619176535   -7.1246333404
     C    11.3504139251   -3.9355211821   -6.7386044766
    Cl    11.9666461156   -2.7940830927   -5.5777166624
    Cl    12.8481675402   -7.1503527146   -8.5745919672
     C     6.6768775618    0.3622700493    2.8210903988
     C     6.1639746881   -0.9394024781    3.4320655099
     O     6.8637713042   -1.2213876723    4.6478695382
     C     6.4017059928   -0.6265396366    5.7635051178
     O     5.4580825439    0.1346671392    5.7722663020
     C     7.2079700875   -1.0328186554    6.9599509399
     H     5.9526968081    3.3166339595    2.2500861655
     H     5.6960054009    3.1789646025    0.5071456753
     H     4.0893669840    1.2423545196    0.9358209279
     H     4.4001662369    1.3958881038    2.6550498894
     H     5.0410083840    1.3070174095   -0.8617402029
     H     5.8487678100    0.4519832784   -2.9860934283
     H     8.8162031280   -1.8906190879   -0.9570786920
     H     8.0245892252   -1.0719560245    1.2031596428
     H     8.4407850898   -2.0496011303   -8.9057553055
     H     8.6957567480   -4.6440272871   -8.7023748767
     H    10.2026560841   -6.4627799381   -9.4336534820
     H    13.1943691888   -5.0449368181   -6.6843256011
     H     6.4904515055    1.1817618388    3.5210039541
     H     7.7591621166    0.3126414323    2.6725324450
     H     6.3634575419   -1.7908878954    2.7782001212
     H     5.0900845238   -0.8759208069    3.6271558229
     H     7.1818085038   -2.1206909168    7.0764390117
     H     6.8094566070   -0.5526288915    7.8538074477
     H     8.2537694404   -0.7425173415    6.8171835321
