53
-1.5072531349499200e+03 frame 37   xyz file generated by TeraChem
     F    -1.3179657117   -3.4664378705    1.8622906445
     C    -1.2830159384   -3.9237372997    0.5903564226
     C    -2.3947417417   -4.5382646752    0.0525635783
     C    -2.3343913756   -5.0064946247   -1.2606154205
     C    -1.1615459157   -4.8435833256   -1.9922918852
     C    -0.0459653931   -4.2183793850   -1.4372624306
     C    -0.0892224347   -3.7430413946   -0.1217943554
     N     0.9411260074   -3.0761252875    0.5364789992
     C     2.2392048306   -2.9873184320    0.1524074618
     N     2.8154602084   -3.5880872249   -0.8643320693
     C     4.1322180346   -3.1726132125   -0.8129594980
     C     4.3296169007   -2.2988413433    0.2881021475
     N     3.1006941807   -2.1854916338    0.8934931171
     C     2.7481127471   -1.2261032321    1.9285260852
     C     2.4750690145   -1.8214794470    3.3030700431
     C     3.4955839987   -2.8174254167    3.8383253214
     C     2.6369031319   -3.6814735037    4.7584662631
     C     1.3365559819   -3.7717401053    3.9727406405
     O     1.2251786035   -2.5279896692    3.2633423641
     C     5.5597098508   -1.7341498609    0.5817119680
     C     6.6018337936   -2.0703684709   -0.2749833517
     C     6.4599512691   -2.9324618501   -1.3820001005
     C     5.1903221267   -3.4891273442   -1.6439120201
     C     7.6316585589   -3.2300309374   -2.1754385793
     C     7.4368179635   -4.1142929041   -3.3691583799
     C     8.8471822221   -2.6789076532   -1.8268228820
     C     8.9259809967   -1.7196682778   -0.7324002575
     O     9.9079221964   -1.0748900356   -0.3957003692
     O     7.8028034046   -1.4967268418    0.0040721912
     C    10.1209942926   -3.0558224412   -2.5381849644
     O    10.2587497730   -4.1534253253   -3.0806442766
     N    11.0900844755   -2.1162277824   -2.5740091205
     H    -3.2863212666   -4.6450917993    0.6627952411
     H    -3.1989221409   -5.4950385842   -1.6997833394
     H    -1.1047743559   -5.2066207095   -3.0146723736
     H     0.8685787048   -4.1031773395   -2.0051008265
     H     0.7614584028   -2.8061122199    1.5100265128
     H     1.8647752139   -0.6668325309    1.5988719592
     H     3.5706272706   -0.5103976984    2.0032819583
     H     2.3666360036   -0.9735695795    3.9948532699
     H     4.3258424067   -2.3213346490    4.3479494789
     H     3.9015670986   -3.4213172870    3.0177736005
     H     2.4705263443   -3.1733526727    5.7149525888
     H     3.0710435054   -4.6643290994    4.9607718125
     H     0.4490127591   -3.8879358137    4.6016503409
     H     1.3622731143   -4.5939290464    3.2454196544
     H     5.7360687067   -1.0674940324    1.4192461917
     H     5.0368496661   -4.1621650877   -2.4796781379
     H     6.5704271379   -3.7698031173   -3.9427723832
     H     7.2221828804   -5.1405656664   -3.0461408392
     H     8.3149141372   -4.1410311547   -4.0073145603
     H    11.0503630704   -1.3504262275   -1.9105044559
     H    11.9941556190   -2.4121877768   -2.9168029082
