32
-9.5010799249548791e+02 frame 36   xyz file generated by TeraChem
     O     1.3849758721    1.1312582645   -0.4892026986
     C     2.2868060918    0.3718546847   -0.1843297655
     N     2.6171086061   -0.7843847793   -0.8621474599
     C     2.0054895911   -1.3317458549   -1.9706864088
     C     0.9327653187   -0.7397926572   -2.5782891337
     C     0.3049701451   -1.2913949869   -3.7472978265
     O    -0.6563970289   -0.7736407978   -4.3070990585
     C     0.8771838388   -2.5912298985   -4.3275040448
     O     0.3660969423   -3.0820065880   -5.3181069059
     C     2.0324982692   -3.1969071779   -3.6363125410
     C     2.5802427366   -2.6044071378   -2.4763975985
     C     3.6488261573   -3.2545275159   -1.8514284582
     C     4.1692086464   -4.4389025257   -2.3734601915
     C     3.6339710160   -5.0056739737   -3.5251763734
     C     2.5600511232   -4.3812066949   -4.1484593081
     C     3.2028280997    0.6453747725    1.0084060778
     N     3.1980866496   -0.3947218870    2.0154038892
     C     3.9622949102   -1.4979881219    1.9162090674
     O     4.6318546727   -1.7233643946    0.8960433517
     C     3.9596855947   -2.4399685926    3.0868643484
     H     3.4390948697   -1.2507781627   -0.4680376988
     H     0.5315101094    0.1864385837   -2.1925419759
     H     4.0973324482   -2.8749289512   -0.9388288491
     H     5.0010569862   -4.9179957359   -1.8651350931
     H     4.0437511522   -5.9267398638   -3.9287624593
     H     2.1080252039   -4.7995810447   -5.0424382571
     H     2.8652159249    1.5761542311    1.4641097465
     H     4.2274942777    0.7814265868    0.6422826842
     H     2.6299059340   -0.2533847283    2.8389523131
     H     3.3664735668   -2.0784209302    3.9296292825
     H     4.9929638038   -2.5944021354    3.4119368205
     H     3.5692386775   -3.4085826678    2.7591938018
