37
-8.5841679090760590e+02 frame 60   xyz file generated by TeraChem
     O     2.3707797881   -0.7683096154   -0.7916487615
     C     1.9396645725    0.2478515469   -0.2420867966
     C     0.5040693064    0.3068442421    0.2101835093
     N     0.0725512522    1.4956416949    0.6483889746
     C    -1.1908683081    1.5995672635    1.0406715111
     C    -2.0430422639    0.5002223991    1.0039619335
     N    -1.6292787354   -0.6918358086    0.5826054548
     C    -0.3569305662   -0.8167775821    0.1767283780
     C     0.0409935522   -2.1856902099   -0.2805849022
     C     2.7644511000    1.4264567734    0.0047469080
     C     4.0666114856    1.4234207361   -0.3762198315
     C     5.0490276330    2.4646464490   -0.2149792963
     C     4.7848612903    3.7081099982    0.3962290079
     C     5.7610738086    4.6714980725    0.5355392006
     C     7.0829550169    4.4496820405    0.0639086060
     C     7.3529550942    3.2027667466   -0.5536379440
     C     6.3606130460    2.2513736697   -0.6819630421
     N     8.0497299413    5.3979914168    0.2008548589
     C     7.7502712177    6.6580783625    0.8500839870
     C     9.3882062033    5.1468544482   -0.2924804271
     H    -1.5330758677    2.5702003437    1.3923498114
     H    -3.0796194751    0.5827181646    1.3244330849
     H    -0.7980343843   -2.8649977058   -0.1115199091
     H     0.9248268043   -2.5459426231    0.2530415675
     H     0.3023590172   -2.1858447533   -1.3429841933
     H     2.3033182428    2.2751701482    0.4963002880
     H     4.4213779941    0.5148295626   -0.8655849419
     H     3.7879532306    3.9225023597    0.7725468376
     H     5.5059347465    5.6102910507    1.0141023005
     H     8.3448283810    2.9828245739   -0.9316887284
     H     6.5999993464    1.3031694820   -1.1593598928
     H     6.9741577854    7.2165808301    0.3106673353
     H     8.6529208995    7.2689462109    0.8758552825
     H     7.4091240398    6.5078902091    1.8824715077
     H     9.3909141100    4.9626902937   -1.3747079874
     H     9.8457195586    4.2803168067    0.2028052006
     H    10.0101124007    6.0199871667   -0.0947000965
