31
-9.2890208110036997e+02 frame 20   xyz file generated by TeraChem
     O     3.0692357218   -1.1008367612   -0.2838777552
     C     2.3956859878   -0.0779706505   -0.3368477511
     C     0.9038309746   -0.1401662597   -0.4837122287
     N     0.2743192295    1.0389205334   -0.5590239741
     C    -1.0447911277    1.0353024709   -0.6930161294
     C    -1.7526689209   -0.1628679360   -0.7517845521
     N    -1.1435978965   -1.3426291404   -0.6763912180
     C     0.1909270360   -1.3613644029   -0.5420539850
     C     0.8153475057   -2.7183287137   -0.4626730122
     C     3.0053568897    1.2658584127   -0.2575054133
     C     4.3431290848    1.3879788685   -0.1830220253
     C     5.1011995461    2.6316929321   -0.0955057099
     C     4.4891066323    3.8925233555    0.0278444559
     C     5.2507536581    5.0449669938    0.1092068066
     C     6.6393193995    4.9363146434    0.0647194923
     C     7.2812082481    3.7086909879   -0.0563709928
     C     6.5042372479    2.5626624393   -0.1321663658
     N     7.4436586726    6.1463979268    0.1550269038
     O     6.8626820348    7.2152674433    0.2836547728
     O     8.6604471064    6.0339746996    0.0987467143
     H    -1.5505932756    1.9958992187   -0.7538256500
     H    -2.8351239673   -0.1678935938   -0.8612332584
     H     0.0231464809   -3.4686351163   -0.5163102141
     H     1.3799335039   -2.8430960577    0.4661658263
     H     1.5264008961   -2.8767309999   -1.2791579063
     H     2.3375442431    2.1189239489   -0.2700134969
     H     4.9329725741    0.4717420464   -0.1959179658
     H     3.4078740411    3.9753065469    0.0675249070
     H     4.7864796740    6.0191710255    0.2074335634
     H     8.3632363668    3.6606202593   -0.0867391883
     H     6.9872524677    1.5936949128   -0.2227945987
