41
-9.9372257890759283e+02 frame 39   xyz file generated by TeraChem
     C     1.5883285854   -0.5708893779   -0.5251266755
     O     2.8108699123    0.0144328818   -0.1045932393
     C     3.5425693960   -0.6144811490    0.8415313230
     C     3.1625266627   -1.8592501303    1.4272077565
     C     3.9473228217   -2.4516580536    2.3801638629
     C     5.1607684453   -1.8513276593    2.8164568709
     C     5.5370873503   -0.5950198848    2.2188424675
     C     4.7089606183   -0.0007616899    1.2359390750
     C     6.7311122508   -0.0155075189    2.6539240921
     C     7.4923040744   -0.6606510173    3.6253279271
     C     7.0259609060   -1.9133423102    4.1598160825
     N     5.8886513936   -2.4794271708    3.7561631726
     N     7.7297361882   -2.5908146989    5.1193985629
     C     8.8616463757   -2.0910295570    5.5515180874
     C     9.4017989368   -0.8435859504    5.0784090072
     C     8.7097431565   -0.1433957472    4.1259719182
     C    10.6721913288   -0.2946515849    5.6206581101
     O    11.0955481941    0.7919339736    5.2529041905
     C    11.4164704876   -1.1474928142    6.6140586462
     C    10.5078861306   -2.0191276202    7.4945409732
     C     9.6335240995   -2.8815378844    6.5713816804
     C     9.6328539799   -1.1368506341    8.3915635471
     C    11.3747960674   -2.9269014570    8.3653841290
     H     1.1760624948    0.1119716350   -1.2690138790
     H     0.8829092621   -0.6678054126    0.3081981338
     H     1.7509721506   -1.5522728284   -0.9852647693
     H     2.2443254051   -2.3474010820    1.1183402699
     H     3.6572678802   -3.3989794018    2.8251629594
     H     4.9967679701    0.9469289216    0.7891248017
     H     7.0682913601    0.9328213425    2.2405384202
     H     9.0955946998    0.8048180041    3.7596354336
     H    12.0785928979   -1.8034536619    6.0260066298
     H    12.0602767462   -0.4975899928    7.2166212356
     H     8.9327580897   -3.4902977408    7.1529725502
     H    10.2842393753   -3.5830450204    6.0258567090
     H     8.9834181827   -0.4742721386    7.8071193270
     H    10.2571549809   -0.5106167731    9.0392038538
     H     8.9926766028   -1.7572824960    9.0290912361
     H    12.0145993072   -3.5688427334    7.7484914750
     H    10.7488240652   -3.5694084497    8.9957198611
     H    12.0182683222   -2.3289942978    9.0210991346
