51
-1.4446570403878695e+03 frame 49   xyz file generated by TeraChem
     N     2.9905683890   -0.3018691109   -2.3706203926
     C     3.7663511043   -0.5410943626   -1.5324115583
     C     4.7823781090   -0.7253043379   -0.5679480719
     C     5.6829246141    0.3499917935   -0.4535075591
     C     5.7338905743    1.6307244268   -1.0388091005
     C     6.8717624207    2.2447292817   -0.5565585494
     N     7.5440179032    1.3525432709    0.2406261854
     N     6.7713305846    0.2257077976    0.3476328980
     C     7.2550969164   -0.9716972217    0.9266157980
     N     8.4446456600   -1.0716029942    1.3908802276
     C     6.2333129471   -2.0183077270    0.9310503518
     C     5.0154699587   -1.8955143270    0.2148784041
     C     4.0511696824   -2.9674985435    0.2905419284
     C     2.6725039087   -2.9187949553   -0.3245591656
     C     1.6828059176   -3.8206475450    0.4103977266
     C     2.2284231591   -5.1979376951    0.6524378694
     C     3.5930347127   -5.3189643754    0.9672687632
     C     4.4159691854   -4.1121023245    0.9316376182
     O     5.5971039714   -4.2491049928    1.5597479045
     C     6.5352673230   -3.2316194426    1.6545308533
     O     7.5040256470   -3.4979598452    2.3337907189
     C     4.1385929886   -6.5691127026    1.2832083940
     C     3.3315380995   -7.7009641897    1.2719668701
     C     1.9792568082   -7.5875221064    0.9505588159
     C     1.4337638166   -6.3407299058    0.6465208397
     C     7.3868485775    3.5828642987   -0.7871009462
     C     6.5467427302    4.5766558928   -1.3197361959
     C     7.0232195735    5.8506830751   -1.5542904126
     C     8.3575660288    6.1724534972   -1.2576073636
     C     9.2054314271    5.1928723673   -0.7266100335
     C     8.7176141320    3.9125718230   -0.5003934577
     O     8.7275892763    7.4398618265   -1.5194526569
     C    10.0553618051    7.8300356370   -1.1997145175
     H     5.0244760189    2.0293386949   -1.7486569609
     H     8.0012949806    1.6559761390    1.0971368799
     H     8.9838775710   -0.2229739605    1.2222068463
     H     2.7231240319   -3.1984867152   -1.3863233528
     H     2.2818468253   -1.8995897529   -0.2889316471
     H     0.7435001110   -3.8731835182   -0.1491835643
     H     1.4451285258   -3.3656733574    1.3837351935
     H     5.1934476200   -6.6485949610    1.5265176222
     H     3.7578184784   -8.6714837321    1.5099219085
     H     1.3468272892   -8.4712465991    0.9378756349
     H     0.3769137910   -6.2525337515    0.4054596076
     H     5.5071143605    4.3495749060   -1.5374711025
     H     6.3777508661    6.6231480362   -1.9611172251
     H    10.2420660737    5.4140649065   -0.4991716506
     H     9.3978136113    3.1581738577   -0.1136614568
     H    10.1285319404    8.8837219962   -1.4704551558
     H    10.7867395775    7.2520386248   -1.7757409230
     H    10.2539407364    7.7108258393   -0.1287400407
