59
-2.4596327669115071e+03 frame 44   xyz file generated by TeraChem
     O    -0.6596136496   -5.2755431859   -3.3482010670
     C     0.0588993229   -4.5423865246   -4.0226142156
     C    -0.1923037259   -4.0723308585   -5.4443020375
     C     0.8061223098   -2.9311669294   -5.6398202376
     C     1.9304840503   -3.2557207584   -4.6479557092
     N     1.2516599814   -4.0329556636   -3.6243955609
     C     1.8713603450   -4.3811691778   -2.3685809473
     C     1.7470594145   -3.2686056273   -1.3291143953
     C     2.3789596593   -3.6289421786    0.0140474594
     N     3.8265991663   -3.7826052747   -0.0341185554
     C     4.7850164677   -2.7799283280   -0.0193174877
     N     4.3892095288   -1.4792681018    0.0485109024
     C     5.1813481145   -0.3324924724    0.0840027119
     C     6.5819717734   -0.3466916908    0.0662362601
     C     7.2825141876    0.8515622004    0.1010692095
     C     6.6226463001    2.0752208162    0.1541362131
     C     5.2251251406    2.0869016667    0.1731800886
     C     4.5123429185    0.8972933562    0.1384273000
    Cl     4.3409428069    3.5777417742    0.2391852404
    Cl     7.5447696734    3.5433636953    0.1954600648
     N     6.0203462863   -3.2214582350   -0.0711108983
     C     5.8941664622   -4.5959727174   -0.1196101205
     C     4.5248155506   -4.9651378986   -0.1009051596
     C     4.1092272887   -6.2868159245   -0.1389252337
     C     5.1202398930   -7.2394347347   -0.1939582892
     O     4.7094079999   -8.5363415143   -0.2153693587
     C     5.5708460657   -9.5897112776   -0.2640178240
     O     5.0499617611  -10.6934585881   -0.2079007584
     C     6.9963025317   -9.3060069405   -0.3758212101
     C     7.4503322416   -8.0068520077   -0.3006375999
     C     6.4952907917   -6.9241410770   -0.2114966420
     C     6.8753223849   -5.5673690244   -0.1752309307
     C     8.9017401864   -7.6363377593   -0.2744523644
     C     7.9375261735  -10.4608473695   -0.5999119141
     O     9.0024207066  -10.3165307784   -1.2021737617
     N     7.5648107419  -11.6502157368   -0.0806593298
     H    -1.2381768009   -3.7854328697   -5.5796296456
     H     0.0087977283   -4.9175970248   -6.1155800750
     H     0.3401631764   -1.9784622536   -5.3674199369
     H     1.1756658603   -2.8466048134   -6.6643436356
     H     2.3859681099   -2.3582072681   -4.2172640702
     H     2.7304063201   -3.8526528322   -5.1097268306
     H     2.9248558365   -4.6230688218   -2.5560234388
     H     1.3765287204   -5.2870762532   -2.0023954613
     H     0.6846961216   -3.0654222057   -1.1512035648
     H     2.1892949027   -2.3420804296   -1.7160103599
     H     1.9698009604   -4.5722684102    0.3879021327
     H     2.1363119704   -2.8730016435    0.7687056261
     H     3.3928068055   -1.3127416031    0.0870835568
     H     7.1104131500   -1.2896880206    0.0249226815
     H     8.3678490749    0.8374171365    0.0867321795
     H     3.4267922114    0.9320207889    0.1534095523
     H     3.0687100048   -6.5933587474   -0.1289707608
     H     7.9198417685   -5.2790302419   -0.1973835639
     H     9.5450225701   -8.5029305501   -0.1534808757
     H     9.0835951535   -6.9236299025    0.5362032434
     H     9.1801709351   -7.1378814789   -1.2113344198
     H     6.5897087627  -11.7907126281    0.1591499018
     H     8.1141352323  -12.4543784191   -0.3532742422
