16
-5.4947872584869879e+02 frame 18   xyz file generated by TeraChem
     O     1.1039550986    0.0924355281   -0.6970945957
     C     2.1146712057   -0.1654646606   -0.0743550780
     C     2.9571958159   -1.3550380927   -0.3331472681
     C     2.6084897007   -2.2519822251   -1.3498420065
     C     3.3936268679   -3.3676591882   -1.5902742815
     C     4.5235986083   -3.5619394374   -0.7986838067
     C     4.8949037589   -2.6870175289    0.2161050225
     C     4.0971837544   -1.5732946799    0.4454535898
     N     5.3540631367   -4.7408719200   -1.0429019834
     O     5.0010765508   -5.5177632628   -1.9172469104
     O     6.3561158742   -4.8881620520   -0.3598561680
     H     2.4671072116    0.4925717731    0.7433128751
     H     1.7192154348   -2.0621504505   -1.9427548501
     H     3.1480245804   -4.0792887938   -2.3697977525
     H     5.7828393350   -2.8818706887    0.8055761813
     H     4.3587229577   -0.8706343534    1.2327572015
