48
-1.4047073135213986e+03 frame 61   xyz file generated by TeraChem
     C     2.7318470265    0.2427101684   -1.4767566328
     N     2.3500900031   -0.7267266095   -0.4694201789
     C     3.1890285928   -0.9830285732    0.5573770153
     N     4.3001362915   -0.3253802539    0.8153129617
     C     4.7756091845   -0.8971359640    1.9804409004
     C     3.9083233337   -1.9372824880    2.4124461219
     N     2.8918619363   -1.9677585084    1.4888457819
     C     1.7127782760   -2.8044652863    1.5151653340
     C     1.7805612825   -4.0201313611    0.6120856103
     C     2.9730820827   -4.4457296188    0.0346164622
     C     3.0339070416   -5.5931716660   -0.7757582295
     C     1.8596935616   -6.2849221060   -0.9646635590
     C     0.6631665834   -5.8639311799   -0.3880424863
     C     0.5858056821   -4.7371784251    0.3963136476
     O    -0.3429470355   -6.7041720011   -0.7665880193
     C     0.3055339047   -7.8090502313   -1.3936363583
     O     1.6311695129   -7.3989582884   -1.7214312802
     C     4.1448121449   -2.6893903340    3.5501458203
     C     5.2932777005   -2.3637349815    4.2642256731
     C     6.1896344363   -1.3460018458    3.8802462589
     C     5.9112665868   -0.6048010879    2.7114018684
     C     7.3365123391   -1.0870148581    4.7207547182
     C     8.2923798586   -0.0298064710    4.2574512626
     C     7.5161696615   -1.8235377749    5.8744502639
     C     6.6093704632   -2.9202158456    6.1868667532
     O     6.7076445432   -3.7113956305    7.1139003047
     O     5.5289505115   -3.1066426477    5.3796540407
     C     8.6198043910   -1.5105999128    6.8506610530
     O     9.0960005376   -0.3784985941    6.9500144676
     N     9.0794483239   -2.5433491395    7.5895989568
     H     1.8944816608    0.3678329023   -2.1652580693
     H     3.6201821783   -0.0672528396   -2.0420934580
     H     2.9438497903    1.2024629069   -0.9992609789
     H     1.7698809388   -1.4924015572   -0.7846265777
     H     0.8483213253   -2.1842214885    1.2501258307
     H     1.5577174595   -3.1118566110    2.5550781225
     H     3.8865024619   -3.8856351852    0.2116130510
     H     3.9647763427   -5.9168011322   -1.2298988376
     H    -0.3558210571   -4.4143587919    0.8314750961
     H    -0.2295186561   -8.0734888544   -2.3071239288
     H     0.3464988656   -8.6532497703   -0.6929577366
     H     3.4974599054   -3.4916043244    3.8884831456
     H     6.5697893556    0.1939761085    2.3904963559
     H     8.5234699093   -0.1829176531    3.1985126234
     H     9.2092791071   -0.0227933297    4.8390593681
     H     7.8288872903    0.9604919825    4.3468281735
     H     8.5038761279   -3.3740530545    7.6745830992
     H     9.7114884135   -2.3126491494    8.3444662721
