28
-7.2366173552641533e+02 frame 34   xyz file generated by TeraChem
     C     1.0757509229   -0.2735845935    0.0706004428
     N     2.4931152837    0.0099488493    0.1663830050
     C     3.3061596924   -0.8084614319    0.8873795780
     C     2.8002688572   -1.9423165655    1.5701179387
     C     3.6320940084   -2.7652057944    2.3040972680
     C     5.0167833427   -2.5229050540    2.4027206804
     C     5.5172584958   -1.3938807107    1.7208381078
     C     4.7002978785   -0.5596054284    0.9893778683
     C     5.9096090726   -3.3820588098    3.1465122734
     C     7.2661029649   -3.3893555389    3.1838781041
     C     7.7358829122   -4.4380785510    4.0978753566
     O     8.8753638354   -4.7479700677    4.3939948087
     N     6.5888993234   -5.0576412273    4.5941622050
     C     5.4460974821   -4.4806150488    4.0918948576
     O     4.3122210898   -4.8071693898    4.3847152867
     C     3.0423104600    1.1590426427   -0.5248934275
     H     0.5959211699   -0.2679740308    1.0577931423
     H     0.8905387857   -1.2506282782   -0.3945592127
     H     0.6006013025    0.4917430312   -0.5431165045
     H     1.7436677915   -2.1802989395    1.5224188153
     H     3.2070401824   -3.6221161944    2.8139032558
     H     6.5765443653   -1.1571500081    1.7777178211
     H     5.1392590411    0.2987223986    0.4936342900
     H     7.9577533634   -2.7598403962    2.6389912161
     H     6.5917486942   -5.8105620874    5.2693221296
     H     2.2363455182    1.6851228569   -1.0369016286
     H     3.7883641342    0.8619217772   -1.2733098806
     H     3.5180301177    1.8591966271    0.1739022613
