51
-1.0670659171951661e+03 frame 82   xyz file generated by TeraChem
    Br     3.3909217044   -3.3762736495    2.3379560434
     C     3.0980501462   -1.7206472465    1.3410294980
     C     2.1335906821   -0.8264994622    1.7873887053
     C     1.9210808174    0.3404091170    1.0583370330
     C     2.6660896379    0.6145939883   -0.0945386291
     C     3.6293048004   -0.3104321226   -0.5136696506
     C     3.8529755996   -1.4855868142    0.2005200606
     C     2.3983238486    1.8479994578   -0.8896271411
     N     3.2118130923    2.8383194296   -1.0131027046
     N     4.3908143493    2.8183996570   -0.3609449181
     C     5.2763683556    3.8797854900   -0.3308638354
     C     6.5019962573    3.7179580129    0.2463498409
     C     7.1451411300    2.5143955607    0.7604338776
     C     6.9119949258    1.2103227802    0.2215271131
     C     7.5737110134    0.1303696827    0.7388738324
     C     8.4961131451    0.3125699550    1.7979037711
     C     8.7062615573    1.6513251750    2.2436683016
     N     8.0404228766    2.7149915793    1.7261924538
     C     9.6497634839    1.8802494888    3.2782293384
     C    10.3377057094    0.8312329302    3.8422852092
     C    10.1222937761   -0.4945974528    3.4002886042
     C     9.2179765487   -0.7476125784    2.3945105423
     C     4.8307459655    5.2306165537   -0.8999377067
     C     3.5392272782    5.7070927446   -0.2121137703
     C     5.8913048893    6.3150516023   -0.6751172931
     C     4.6233680923    5.1178458233   -2.4228655669
     C     1.0828331963    1.9348643659   -1.6016525876
     H     1.5551123451   -1.0291312041    2.6826382367
     H     1.1664260569    1.0461114026    1.3955755115
     H     4.2016968303   -0.1247749408   -1.4192074381
     H     4.5955483381   -2.2011013170   -0.1369954547
     H     4.5828227964    2.0335003862    0.2561617018
     H     7.0869256903    4.6107807075    0.4245951803
     H     6.2510419224    1.0856705066   -0.6296317388
     H     7.4141178587   -0.8662520069    0.3326085964
     H     9.8052636314    2.9032924963    3.6100086159
     H    11.0552960058    1.0198894367    4.6366147901
     H    10.6754029687   -1.3108977228    3.8566651259
     H     9.0469145263   -1.7626158339    2.0423140815
     H     3.6903614159    5.7997032406    0.8697603119
     H     2.7033500820    5.0279385833   -0.3906750598
     H     3.2690871958    6.6955767826   -0.6016206999
     H     6.0731181403    6.4992100022    0.3893823033
     H     5.5295901627    7.2492141006   -1.1180522830
     H     6.8435900252    6.0656064191   -1.1551638307
     H     3.8460150466    4.3950808111   -2.6753870760
     H     5.5560310178    4.8194709479   -2.9159472753
     H     4.3308808048    6.0978447717   -2.8184383259
     H     0.9664946272    1.1033269136   -2.3080029610
     H     1.0060159353    2.8797944630   -2.1456968945
     H     0.2493697803    1.8665898998   -0.8908272881
