29
-7.3716276498593948e+02 frame 54   xyz file generated by TeraChem
    Br    -1.2765898176    1.2217743013    0.5287223186
     C     0.6103745091    0.7768185140    0.2973823684
     C     1.0023879743   -0.5547379071    0.3982911589
     C     2.3450814426   -0.8679347114    0.2387660349
     C     3.2962966999    0.1334684862   -0.0195987439
     C     2.8578268110    1.4632454400   -0.1130032904
     C     1.5167236233    1.7965347751    0.0431644196
     C     4.7168185770   -0.1409445472   -0.1917520227
     C     5.3319927485   -1.3386601420   -0.1530208398
     C     6.7919947350   -1.4072117954   -0.3410456722
     O     7.4739994423   -0.4062532717   -0.5420407994
     C     7.4289284079   -2.7656370987   -0.2741093590
     N     6.5932291925   -3.7968727550   -0.1016363470
     C     7.1099143373   -5.0167075339   -0.0397969513
     C     8.4838017939   -5.2163797060   -0.1476007142
     N     9.3289930944   -4.2031604492   -0.3155106566
     C     8.8266459932   -2.9614022318   -0.3840786929
     C     9.8290986464   -1.8668625556   -0.5737139723
     H     0.2759672942   -1.3343594969    0.6013586322
     H     2.6512810590   -1.9066101871    0.3201503148
     H     3.5807700627    2.2506174873   -0.3112851862
     H     1.1895300648    2.8280756758   -0.0301957033
     H     5.3465922314    0.7307207140   -0.3713033491
     H     4.8021099439   -2.2688453305    0.0153863820
     H     6.4253934156   -5.8501231998    0.0990683578
     H     8.9099306346   -6.2161224821   -0.0958461624
     H    10.8268930565   -2.3109126909   -0.6016684575
     H     9.7735275676   -1.1321323042    0.2349468133
     H     9.6444019592   -1.3175407485   -1.5017003766
