42
-1.5276507210285413e+03 frame 89   xyz file generated by TeraChem
     C    -1.1775882374    1.0199443508   -0.3109780302
     C    -1.1962363296   -0.4891607330   -0.0788637617
     C     0.0657874381   -1.1419214680   -0.6363673013
     C     1.3350986892   -0.5232257068   -0.0491216198
     C     1.3589940250    0.9945572502   -0.2841996204
     C     0.0879711806    1.6474196664    0.2703703951
     N     2.6072435577    1.5348526314    0.2571680079
     C     2.9273265704    2.8878252837   -0.1961687407
     C     4.2089296437    3.3746546387    0.4193660491
     C     5.4079991657    3.4421030505   -0.2368383429
     S     6.6709400149    4.0245653263    0.7802787945
     C     5.5939542995    4.1820508033    2.1173011577
     C     4.3265504148    3.8052873104    1.7801103257
     N     2.5363560284   -1.1075649608   -0.6350203021
     C     2.8749125079   -2.4135395222   -0.0758259161
     C     4.2374261265   -2.8635607781   -0.5222569750
     C     4.4695588745   -3.8997614756   -1.3851267446
     S     6.1513869858   -4.1333971265   -1.6806658256
     C     6.5697363099   -2.8234706400   -0.6402052178
     C     5.4587907470   -2.2473191040   -0.0968633897
     H    -2.0672552754    1.4883406401    0.1280684428
     H    -1.2169683156    1.2197376586   -1.3917021833
     H    -2.0861634862   -0.9368798624   -0.5382107116
     H    -1.2650390407   -0.6887226884    1.0004431047
     H     0.1001558979   -1.0166882602   -1.7283251602
     H     0.0524765341   -2.2215821722   -0.4423147949
     H     1.3149865229   -0.6810195947    1.0510086573
     H     1.3943896836    1.1548058618   -1.3729778613
     H     0.1037355810    2.7254524803    0.0693544808
     H     0.0873677023    1.5283781378    1.3648158771
     H     2.5451831498    1.5339165100    1.2751818786
     H     2.1286321806    3.6154391245    0.0272479861
     H     3.0309259445    2.8587472596   -1.2870946121
     H     5.6177161980    3.1828902648   -1.2675589993
     H     5.9580013987    4.5518168104    3.0675982433
     H     3.4915697518    3.8373072305    2.4741664238
     H     3.2876153289   -0.4524732597   -0.4111798452
     H     2.1308668523   -3.1500768719   -0.4000230102
     H     2.8442507717   -2.4040906795    1.0312138959
     H     3.7399649152   -4.5422608913   -1.8629351171
     H     7.6092511087   -2.5627857286   -0.4858717232
     H     5.4999928394   -1.4096604696    0.5935162814
