25
-7.4231193027266545e+02 frame 34   xyz file generated by TeraChem
     C     0.8026229258    0.0353952267    0.6799033799
     C     2.1862636187    0.1859606316    0.1045749255
     O     2.4081223383    0.3216197874   -1.0853795874
     N     3.1816928082    0.1581150857    1.0719574799
     C     4.5453904450    0.2846414662    0.9240224680
     C     5.1290634342    0.5441775325   -0.2843929323
     C     6.5487880793    0.7076094155   -0.4331215853
     O     7.0996821356    0.9287671066   -1.5064784950
     C     7.4216356333    0.6173712784    0.8271737935
     O     8.6228195814    0.7932151288    0.7365827052
     C     6.7495994134    0.3055877407    2.1048910795
     C     5.3502766666    0.1213140803    2.1615056530
     C     4.7878545286   -0.2186244065    3.3954009104
     C     5.5798826901   -0.3474297034    4.5358558338
     C     6.9542911536   -0.1447324366    4.4719804951
     C     7.5333965635    0.1769790260    3.2500970914
     H     0.0836767832   -0.0251754605   -0.1373689331
     H     0.5607007087    0.8970511912    1.3125859991
     H     0.7313630417   -0.8646086539    1.3001513128
     H     2.8349581552    0.0486606449    2.0137708166
     H     4.5195695765    0.6448950686   -1.1711458613
     H     3.7257734287   -0.4072734141    3.5136952665
     H     5.1091323498   -0.6117125688    5.4782491262
     H     7.5680234761   -0.2434272677    5.3622629172
     H     8.6045309043    0.3302036840    3.1597464911
