39
-1.1416294263987309e+03 frame 57   xyz file generated by TeraChem
     C     1.4405784316   -2.1236371943    0.0496691275
     C     2.6821819479   -1.8854429560    0.8733333980
     O     2.7681969487   -2.2710911924    2.0322444980
     N     3.6789140524   -1.2043470341    0.2220554284
     C     4.9228604998   -0.7987859745    0.7036387330
     C     5.3851758287   -1.0778603622    1.9996347783
     C     6.6368926233   -0.6291341254    2.3913217949
     C     7.4523872358    0.1141303608    1.5311286159
     C     6.9909273815    0.3751769005    0.2335891243
     C     5.7475343439   -0.0768684877   -0.1740236240
     C     8.7746619480    0.5521268902    2.0482713395
     O     9.3278249049   -0.0128474218    2.9811271426
     N     9.3134256438    1.6569388789    1.4041310170
     C    10.5217103050    2.2838247081    1.6183160233
     C    11.3998649829    1.8841607265    2.5862620852
     C    12.6384589592    2.5726867587    2.8306109853
     O    13.4519285725    2.2245611667    3.6799949518
     C    12.9438698058    3.8260564329    1.9992587432
     O    13.9561051990    4.4634204828    2.2263144372
     C    11.9881162593    4.1904798171    0.9346015030
     C    10.8188479463    3.4285166743    0.7195920414
     C     9.9946634944    3.7871924409   -0.3510822427
     C    10.3012369003    4.8816071139   -1.1590387707
     C    11.4414375483    5.6416069648   -0.9211546124
     C    12.2850155721    5.2853726670    0.1245206178
     H     0.6034072625   -1.6018820475    0.5246612208
     H     1.2115708038   -3.1932240010    0.0640692655
     H     1.5244450927   -1.7883558396   -0.9867478705
     H     3.4823887416   -0.9402042192   -0.7349097529
     H     4.7605948108   -1.6373370945    2.6818597743
     H     6.9951720554   -0.8475297840    3.3926976070
     H     7.6062506231    0.9003374647   -0.4924412981
     H     5.4082474393    0.1253518836   -1.1869356212
     H     8.6859209368    2.1130737662    0.7594402962
     H    11.1654125223    1.0392656314    3.2179726994
     H     9.1037770137    3.2228069876   -0.6073498536
     H     9.6382075886    5.1318380207   -1.9819650727
     H    11.6759340046    6.4948739500   -1.5503850804
     H    13.1934606246    5.8437319137    0.3287899889
