68
-1.3810564543220366e+03 frame 51   xyz file generated by TeraChem
     C     2.5328607699   -0.6573512295   -0.1339165290
     C     2.4115995411    0.7483052819    0.4654007561
     C     3.6018515239    1.1740085783    1.3320345983
     N     4.4864422939    0.4522162340    1.9184632705
     N     4.6721017144   -0.8641350707    1.6834080278
     C     4.6039590372   -1.7741529882    2.5858825020
     C     4.0709254867   -1.6878995221    4.0214250757
     C     2.6478120461   -2.2755589769    4.0217726172
     C     4.9492183636   -2.5325791026    4.9593998734
     C     4.0218600235   -0.2675652167    4.5970703485
     C     5.0495498084   -3.1383784037    2.0857698780
     C     6.4941234320   -3.4827315671    2.3819436736
     C     7.5221024378   -2.5450925298    2.0925659472
     C     8.8265060499   -2.8851863414    2.3355832806
     C     9.1262372806   -4.1630451134    2.8676394178
     C     8.0292472982   -5.0372056155    3.1188543943
     N     6.7365165757   -4.6814147059    2.8734383549
     C     8.2880505247   -6.3260155896    3.6469994363
     C     9.5778189017   -6.7236373710    3.9124124465
     C    10.6651804063   -5.8546353349    3.6633163753
     C    10.4435295816   -4.5978751266    3.1506293245
     C     3.7508570144    2.6562722370    1.6354056996
     C     4.5760905799    3.4248685728    0.6246936491
     C     5.8450583151    2.9271142266    0.2222864807
     C     6.5971274049    3.6496472525   -0.6649569889
     C     6.0980709492    4.8779152048   -1.1631229733
     C     4.8178505657    5.2977461549   -0.6982331578
     N     4.0811264124    4.5639503771    0.1837978835
     C     4.2871230343    6.5232364333   -1.1704596914
     C     4.9978223099    7.2921603534   -2.0627199250
     C     6.2671195699    6.8729115453   -2.5242733963
     C     6.8069304696    5.6877417233   -2.0826421654
     C     2.2298715956    1.7313036031   -0.7031681610
     C     1.1554062366    0.8002813831    1.3554927086
     H     3.4458872431   -0.7679162340   -0.7272161821
     H     1.6749177158   -0.8238721512   -0.7969492726
     H     2.5241820067   -1.4397197161    0.6277824437
     H     2.6388764207   -3.3189433400    3.6884762090
     H     1.9808935237   -1.7007724783    3.3702853622
     H     2.2410305476   -2.2433264471    5.0398853802
     H     4.9833076724   -3.5866872137    4.6693588894
     H     4.5369085019   -2.4802574837    5.9735918434
     H     5.9771172135   -2.1533614905    4.9928044817
     H     3.3091379720    0.3731669824    4.0738459688
     H     5.0037333179    0.2146486246    4.5653787785
     H     3.7100137572   -0.3327318129    5.6467370455
     H     4.9174696665   -3.1421813668    0.9972746637
     H     4.4251924042   -3.9377408908    2.4944245264
     H     7.2583280755   -1.5761431660    1.6803707272
     H     9.6363880163   -2.1901224956    2.1252338070
     H     7.4418314441   -6.9817674071    3.8328725952
     H     9.7670202019   -7.7142022862    4.3175434680
     H    11.6774942795   -6.1854747436    3.8786639125
     H    11.2729830663   -3.9220203860    2.9548889779
     H     4.2459747776    2.7411182305    2.6100375330
     H     2.7782863807    3.1487919980    1.7179692959
     H     6.1977260266    1.9842100587    0.6278529090
     H     7.5725503642    3.2971086958   -0.9928576764
     H     3.3105085004    6.8317757697   -0.8074516246
     H     4.5832244522    8.2312671436   -2.4195653437
     H     6.8137510712    7.4925104955   -3.2298787786
     H     7.7823236282    5.3552905073   -2.4307797599
     H     3.0961970463    1.7166297663   -1.3747191214
     H     2.0740747539    2.7616209883   -0.3708604109
     H     1.3493815268    1.4307160137   -1.2823538478
     H     1.2314434257    0.0892439665    2.1850361313
     H     0.2737979818    0.5363098450    0.7588465763
     H     0.9914698106    1.7995665185    1.7731869578
