45
-1.7881649785224367e+03 frame 51   xyz file generated by TeraChem
     N     2.9954557346    0.0678411590   -2.5332424912
     C     3.7090350953   -0.2599006092   -1.6701812911
     C     4.6416948161   -0.5546940312   -0.6506932030
     C     5.4797926127    0.5196667718   -0.2955079999
     C     5.5162117432    1.8788701484   -0.6701815257
     C     6.5870142755    2.4420063236   -0.0096843351
     N     7.2330498715    1.4609149397    0.6922891886
     N     6.5102582093    0.3085997501    0.5613508400
     C     6.9918457558   -0.9458288659    1.0082458343
     N     8.1271349679   -1.0790099565    1.5835542830
     C     6.0327695300   -2.0158777270    0.7416020559
     C     4.8706971234   -1.8258893767   -0.0453893599
     C     3.9610878150   -2.9390695578   -0.2205059989
     C     2.6376232236   -2.8136680252   -0.9293775455
     S     1.3391544736   -3.8571726665   -0.2075523212
     C     2.2053652686   -5.3899862124   -0.1560019123
     C     3.5954648788   -5.4098433642    0.0638017946
     C     4.3436215897   -4.1641797331    0.2339340128
     O     5.4937014911   -4.3502812457    0.9050216148
     C     6.3526504312   -3.3222317044    1.2666780118
     O     7.2783897549   -3.6589293472    1.9708136334
     C     4.2513292046   -6.6454912097    0.1591547605
     C     3.5429125995   -7.8348367734    0.0531484538
     C     2.1622211097   -7.8045945371   -0.1421235247
     C     1.4960659471   -6.5875153622   -0.2491422761
     C     7.0721481363    3.8160493378    0.0083426637
     C     6.2061260854    4.8670317495   -0.3262118248
     C     6.6565235234    6.1793298670   -0.3229423867
     C     7.9789670742    6.4264950136    0.0217293807
     C     8.8627236574    5.4102379059    0.3579861711
     C     8.4031584325    4.1009278730    0.3470019213
     F     8.4209834077    7.6918913816    0.0267482564
     H     4.8490888205    2.3644807930   -1.3669812720
     H     7.6417880409    1.6363551021    1.6067689035
     H     8.6421468250   -0.1999848085    1.6153288939
     H     2.7246213962   -3.0321390648   -1.9998984614
     H     2.2301558705   -1.8077738898   -0.8287284261
     H     5.3240429077   -6.6608086248    0.3214672842
     H     4.0661343274   -8.7837459383    0.1240107453
     H     1.6007029453   -8.7312883408   -0.2216750142
     H     0.4223525579   -6.5627707432   -0.4135536803
     H     5.1700383944    4.6587262576   -0.5757128500
     H     5.9989160756    7.0048895493   -0.5748582856
     H     9.8908437740    5.6477743730    0.6105940764
     H     9.0928246970    3.2949606164    0.5812749153
