34
-8.6010881766853572e+02 frame 63   xyz file generated by TeraChem
     C     1.8800696601   -3.4530307730   -0.6652849236
     C     2.0989504235   -1.9471644162   -0.5364161468
     C     2.8419836812   -1.6043698147    0.7572871173
     C     2.0294997708   -1.8919203243    2.0002219540
     O     0.8250746192   -1.7101337004    2.0599787775
     N     2.7808877839   -2.3569466442    3.0681235241
     C     2.3806848507   -2.6278378708    4.3597326789
     C     1.1242223075   -2.3423982469    4.8137522197
     C     0.7333262900   -2.5623058757    6.1798956095
     O    -0.3853082624   -2.3081690297    6.6128736545
     C     1.7872642448   -3.1088778130    7.1541354968
     O     1.5028173959   -3.2415000344    8.3301768903
     C     3.1100996729   -3.4628842341    6.6013312387
     C     3.4029800870   -3.2534274649    5.2355275659
     C     4.6518252215   -3.6687781398    4.7645856140
     C     5.5883519567   -4.2433415500    5.6234402931
     C     5.2984637365   -4.4225707833    6.9718565061
     C     4.0532696066   -4.0351001917    7.4530545274
     C     2.8631622394   -1.3991180806   -1.7382092983
     H     1.3082888979   -3.8528851260    0.1798739864
     H     2.8414222370   -3.9809053723   -0.7060284221
     H     1.3293809019   -3.6880918841   -1.5829568871
     H     1.1184851646   -1.4562173418   -0.4898372561
     H     3.0672627190   -0.5281864788    0.7799467692
     H     3.8065899107   -2.1267280652    0.7881126303
     H     3.7649751337   -2.4610997512    2.8688508083
     H     0.3889799804   -1.9106718210    4.1493689614
     H     4.9302162081   -3.5817308581    3.7189169866
     H     6.5491192291   -4.5551730400    5.2243891536
     H     6.0305385299   -4.8686523263    7.6382663451
     H     3.7862849238   -4.1756281648    8.4960806257
     H     3.8607902253   -1.8516148525   -1.8040677642
     H     2.9898154105   -0.3123017213   -1.6709168365
     H     2.3327250022   -1.6218998481   -2.6708540199
