55
-1.7975787626697811e+03 frame 60   xyz file generated by TeraChem
     C    -0.2097180666   -2.8530755139    3.4521383798
     C     0.4576965702   -2.0140707395    2.3748436990
     C     0.4443253980   -2.5524781823    0.9498378831
     C    -0.2738666116   -1.5130535567    0.4735520527
     C    -0.3812487563   -0.8238535288    1.8079583781
     C     1.0109848241   -3.7448715353    0.3646895851
     C     0.8678528879   -4.2445074882   -0.9101654547
     C     1.5881751554   -5.4465388810   -1.1309478281
     C     2.2870258022   -5.8733614131   -0.0308393459
     S     2.0607258050   -4.7813582428    1.2930518062
     C     3.1231891945   -7.1086030874    0.1250828311
     N     3.6633500105   -7.5337840908   -1.1578830791
     C     4.4125435760   -8.7521693433   -1.0581121129
     C     4.6174626573   -9.5489849625   -2.3127692599
     C     3.6732341950  -10.0473149439   -1.2580070001
     N     4.0881230106  -11.1749171161   -0.4768249152
     C     3.3655579155  -11.2789810687    0.7821517221
     C     3.9057511615  -12.4036450154    1.6141734760
     C     5.1622497096  -12.9468376450    1.6045467577
     C     5.3350327820  -13.9848344856    2.5591111277
     C     4.2091903610  -14.2399573333    3.3082723109
     S     2.9145248142  -13.1809054612    2.8082565953
     C     4.0721424884  -15.2248074265    4.3513184329
     C     3.1114763337  -15.6348504764    5.2150703651
     C     3.9922660911  -16.6863930650    5.8481673355
     C     5.0986049907  -16.2174532967    4.8586957542
     C     1.7055777994  -15.2609249477    5.5104872153
     H     0.3658155240   -3.7600445037    3.6700758333
     H    -1.2154984328   -3.1580513724    3.1388286270
     H    -0.3013674938   -2.2827973758    4.3839199193
     H     1.4576985077   -1.7003630061    2.7045307297
     H    -0.6391110521   -1.2518339823   -0.5168985292
     H    -1.3932458765   -0.7541024131    2.2281797494
     H     0.0948841697    0.1620900492    1.8850225622
     H     0.2559961952   -3.7575618310   -1.6633563654
     H     1.5950589857   -5.9884093058   -2.0703235943
     H     2.5016790507   -7.9299966100    0.5098282684
     H     3.9043934629   -6.9372123799    0.8874589930
     H     4.2618308767   -6.7970005987   -1.5258982034
     H     5.2214431244   -8.7956596435   -0.3213438186
     H     5.5608926825  -10.0751526331   -2.4261152206
     H     4.1843423318   -9.1557686896   -3.2279232021
     H     2.6059204242   -9.9386381184   -1.4777293447
     H     3.9485582342  -12.0299749685   -1.0109126594
     H     2.2760042193  -11.4023617370    0.6467143429
     H     3.4965778753  -10.3262477066    1.3151117351
     H     5.9374221899  -12.6064923304    0.9267907498
     H     6.2616064085  -14.5336908865    2.6966453955
     H     3.6619630053  -17.7247349747    5.7143890400
     H     4.2255806192  -16.5324045053    6.9097658050
     H     5.4224847451  -16.9739049425    4.1341240715
     H     5.9855528759  -15.7788514875    5.3309964296
     H     1.3511691414  -14.4332443160    4.8882934521
     H     1.5955634922  -14.9664501924    6.5629271310
     H     1.0339047804  -16.1158290175    5.3531019276
