28
-7.8157775269941044e+02 frame 28   xyz file generated by TeraChem
     C     1.2786930349    0.0211942724    0.8697667640
     C     2.6020030405    0.2370939433    0.1576005678
     C     2.8872597220    1.6972432412   -0.1169031494
     O     2.1567739796    2.6056013294    0.2355388637
     N     4.0683014616    1.8949685451   -0.8198999524
     C     4.6718851359    3.0762429364   -1.1913918203
     C     4.2224564593    4.2959792911   -0.7691082289
     C     4.9083903343    5.5184003159   -1.0879120918
     O     4.5292230090    6.6263670501   -0.7227924286
     C     6.2138363056    5.4235019199   -1.8926175214
     O     6.8621602862    6.4324411364   -2.1028302849
     C     6.6143513187    4.0928187852   -2.3923614394
     C     5.8521934363    2.9456180865   -2.0821885546
     C     6.2401418282    1.7294107492   -2.6517008981
     C     7.3663179130    1.6473889479   -3.4701970607
     C     8.1282104122    2.7783912696   -3.7440574633
     C     7.7413599527    4.0008968748   -3.2071927653
     H     1.1277746408   -1.0445181882    1.0649756510
     H     0.4415484329    0.3804110685    0.2637464892
     H     1.2547482030    0.5529532147    1.8254002425
     H     2.6289314180   -0.3051163411   -0.7970683122
     H     3.4367810390   -0.1612568591    0.7507359342
     H     4.5682925369    1.0440318023   -1.0373972991
     H     3.3426870338    4.3659690473   -0.1448489214
     H     5.6708232092    0.8177370272   -2.5006568936
     H     7.6401208382    0.6868195620   -3.8967322315
     H     9.0062188699    2.7105058041   -4.3792944222
     H     8.2997672688    4.9083254768   -3.4160927736
