51
-1.3940448199599095e+03 frame 66   xyz file generated by TeraChem
     C     4.7004907953    0.6554191739    1.1473694748
     C     4.3757594921    0.6704467946   -0.3400340840
     C     2.9343169981    1.0843601310   -0.6489125345
     N     2.6203532729    2.4106720422   -0.0969801659
     C     1.6739870769    2.7353527203    0.8713280792
     N     0.9565791280    1.7589626742    1.4828888300
     C    -0.0387654328    1.8767499763    2.4616477695
     C    -0.5350091172    3.0975273084    2.9355445247
     C    -1.5318217993    3.1115996044    3.9086531845
     C    -2.0255798812    1.9152394971    4.3997095502
     C    -1.5524819326    0.6930666127    3.9445737659
     C    -0.5592601065    0.6791341316    2.9755495090
     F    -2.9870131818    1.9339722729    5.3454504680
     N     1.5722441281    4.0246944696    1.1064822115
     C     2.4940456760    4.6063688206    0.2624648669
     C     3.1650043280    3.6112468870   -0.4974123062
     C     4.1531670870    3.9381510437   -1.4162526385
     C     4.4412798654    5.2909453253   -1.5561333066
     O     5.4238948013    5.5925341530   -2.4476935982
     C     5.8226702480    6.8656972307   -2.7158656734
     O     6.7586698278    6.9683982293   -3.4949778516
     C     5.1110772943    7.9562136453   -2.0625510168
     C     4.1553148562    7.6848704067   -1.1067253438
     C     3.7949986885    6.3121671976   -0.8316019099
     C     2.8011292387    5.9440744859    0.0978479907
     C     3.4701589330    8.7459601958   -0.3012586784
     C     5.4297863079    9.3661103859   -2.4858703079
     O     4.5819971982   10.2589131165   -2.4440532490
     N     6.6986649072    9.5991746640   -2.8859491181
     C     2.5819635858    1.0111903388   -2.1308860199
     H     5.7262759050    0.3114557993    1.3149409390
     H     4.0277519561   -0.0177806947    1.6922601715
     H     4.6077905342    1.6536629271    1.5895957576
     H     4.5116539265   -0.3323860600   -0.7631355101
     H     5.0755754633    1.3240771482   -0.8736906381
     H     2.2846587541    0.3726310502   -0.1317522133
     H     1.2006168117    0.8070924807    1.2533518264
     H    -0.1367981649    4.0250456696    2.5455030455
     H    -1.9227879405    4.0520656408    4.2846811561
     H    -1.9563457962   -0.2311810166    4.3455716613
     H    -0.1806410821   -0.2735256747    2.6120916372
     H     4.6995180261    3.2176355796   -2.0118354683
     H     2.2694771979    6.6922981649    0.6745918628
     H     3.9276358377    9.7219451028   -0.4351237007
     H     3.4855698769    8.4707667881    0.7581011445
     H     2.4172738208    8.8230338796   -0.5996529994
     H     7.2662907324    8.8085237957   -3.1703835686
     H     6.8799701981   10.4968994498   -3.3151879711
     H     3.2076099387    1.6725012464   -2.7367609251
     H     1.5338562219    1.2818625179   -2.2917120600
     H     2.7320148529   -0.0128312311   -2.4869634548
