59
-1.8745625244777657e+03 frame 112   xyz file generated by TeraChem
     O     3.3841304489    2.2961565697    0.2891477574
    Cl     4.4249714755    2.1364495978   -0.7556363813
     O     3.9078073365    2.6444712605   -2.0438578919
     O     5.6294246656    2.9001058069   -0.3666214103
     O     4.7728132689    0.7038423714   -0.8935717591
     C     1.9530188627   -1.5840265237   -0.8783554720
     C     1.5157411323   -0.8093081243    0.3600899985
     N     1.9859866920   -1.3838091916    1.6203628175
     C     1.3742093319   -2.4593891524    2.1754614727
     C     0.2005037500   -3.0285666357    1.5798475565
     C    -0.4434075950   -4.0956317761    2.1461228213
     C     0.0275268855   -4.6902483793    3.3379777359
     C     1.1898949340   -4.1308541641    3.9086749921
     C     1.8584982927   -3.0542631464    3.3661251017
     O     1.7025320077   -4.6754830642    5.0463739284
     C     1.1336219803   -5.7263472426    5.6697642382
     C    -0.0376304080   -6.3135302876    5.1443397975
     C    -0.5651450858   -5.7901847396    3.9827790774
     C    -0.6580961283   -7.4735238383    5.8730591413
     C     0.4014497909   -8.2847921727    6.6087016825
     C     1.2012227836   -7.3916452031    7.5531380650
     C     1.7693108766   -6.1811067795    6.8492187532
     C     2.8639541947   -5.4888723818    7.3286903157
     N     3.5224381654   -5.8014093730    8.4487528084
     C     4.6404921209   -5.1518764173    8.9970267220
     C     5.2253737420   -4.0235027208    8.4114130809
     C     6.3327455127   -3.4355670280    9.0136974081
     C     6.8678020596   -3.9541978394   10.1917973237
     C     6.2802218911   -5.0772283821   10.7712801083
     C     5.1732225570   -5.6750756450   10.1811841979
     C     3.1909500547   -0.8131189211    2.2180585469
     C     4.4722144508   -1.5745458237    1.8939882440
     H     1.5306344076   -1.1146556601   -1.7736175718
     H     1.6112986374   -2.6238302850   -0.8462260407
     H     3.0423713377   -1.5786574562   -0.9748263491
     H     0.4247578382   -0.7188981690    0.3940353610
     H     1.9067622450    0.2097485466    0.3115456759
     H    -0.1935762782   -2.6150519001    0.6606505592
     H    -1.3337365890   -4.5045536803    1.6759757501
     H     2.7499554715   -2.6989673947    3.8667608909
     H    -1.4615331435   -6.2331332347    3.5534632912
     H    -1.2072080531   -8.0959037790    5.1584972803
     H    -1.3957610866   -7.0969649388    6.5962754469
     H     1.0789499811   -8.7476918865    5.8799989111
     H    -0.0690599925   -9.0939149181    7.1761790107
     H     2.0141385192   -7.9806846991    7.9963423666
     H     0.5586604121   -7.0698512257    8.3854626410
     H     3.2305717157   -4.6263372698    6.7846196816
     H     3.1889181815   -6.5990214905    8.9795374558
     H     4.8319584740   -3.5965075276    7.4949006650
     H     6.7797561362   -2.5598264747    8.5514172305
     H     7.7332350051   -3.4873287059   10.6527652623
     H     6.6832585555   -5.4948239130   11.6896978313
     H     4.7164471878   -6.5516838368   10.6348265021
     H     3.0468018173   -0.7466564391    3.3024007925
     H     3.2732056866    0.2137460825    1.8526934748
     H     4.4092503390   -2.6236918009    2.2005922406
     H     5.3142603259   -1.1159154300    2.4239839428
     H     4.6877196110   -1.5374555678    0.8223637583
