60
-1.8180210892016894e+03 frame 126   xyz file generated by TeraChem
     C     2.5905962487   -0.9049493054    1.3475818488
     C     1.4602376157   -0.0500815244    1.9071742485
     C     1.9381832260    1.0226430459    2.8765085615
     N     2.7934064404    2.0036294717    2.2187993491
     C     3.6086310093    2.8340966935    2.8609683977
     C     3.6489305546    2.8350039670    4.2747780624
     C     4.4914444154    3.6855348481    4.9434321633
     O     4.4729618779    3.6478600859    6.2904182170
     C     5.2823706471    4.4741406534    7.0042490843
     C     5.2377685349    4.4120830371    8.3736575183
     C     6.0758788589    5.2686335797    9.1261026410
     N     6.0421834256    5.2236637032   10.4676759154
     C     6.8386340341    6.0482815829   11.3565723109
     C     6.5158777947    5.7154027750   12.8060362926
     C     7.3005928824    6.5716087968   13.7886623899
     C     8.7711134946    6.2374416174   13.8432497269
     O     9.2895296991    5.2720449250   13.3186661698
     O     9.4388843323    7.1421624382   14.5663851811
     C    10.8531161990    6.9239350874   14.7415857961
     C    11.1251573887    5.9748755142   15.8883114307
     C     6.9463665156    6.1717329409    8.4397534056
     C     6.9693546317    6.2122360683    7.0716955584
     C     6.1375537696    5.3657892103    6.3004059299
     N     6.1596380736    5.4142297718    4.9562436996
     C     5.3652033817    4.6057110688    4.2827913385
     C     5.3451413817    4.6183339269    2.8309613502
     C     4.4824847238    3.7489210843    2.1186245555
     C     4.5078158572    3.7770852293    0.7131778868
     C     5.3471491733    4.6454757001    0.0366892423
     C     6.1914982357    5.5076204854    0.7452324241
     C     6.1898657431    5.4907435155    2.1275932811
    Cl     1.7719869355    2.2343397081   -0.9462131549
     H     2.1963850219   -1.6900621420    0.6938613623
     H     3.1559457656   -1.3876562545    2.1537510832
     H     3.2904384589   -0.3032286573    0.7571260649
     H     0.7514431753   -0.6797020258    2.4579700945
     H     0.9035514130    0.4197810165    1.0883013007
     H     2.5097025025    0.5477091727    3.6818114837
     H     1.0815868848    1.5348056874    3.3361915631
     H     2.6419085584    2.1073579146    1.2077852394
     H     3.0008500453    2.1927297932    4.8574722414
     H     4.5678725181    3.7162241094    8.8699075175
     H     5.4056821626    4.5645124471   10.8962035742
     H     6.6303648035    7.1098789090   11.1633697300
     H     7.9054473688    5.8795237760   11.1638655317
     H     6.7275074577    4.6561758081   12.9933732104
     H     5.4449310227    5.8723156656   12.9810698885
     H     6.9065622383    6.4360294564   14.8040371497
     H     7.1930489211    7.6402134233   13.5673890921
     H    11.2571159356    7.9186453414   14.9413685681
     H    11.2696491322    6.5498167632   13.8030799058
     H    10.6795803202    6.3474317909   16.8160893152
     H    12.2059560360    5.8820193764   16.0389959073
     H    10.7207770131    4.9809931857   15.6752665905
     H     7.5927315398    6.8294726917    9.0097405296
     H     7.6263421586    6.8959930073    6.5425077597
     H     3.8605935542    3.1269050653    0.1299254556
     H     5.3465587635    4.6518350420   -1.0495128413
     H     6.8500584375    6.1873588112    0.2119069341
     H     6.8409960719    6.1474893010    2.6947910999
