34
-9.6816620522287735e+02 frame 42   xyz file generated by TeraChem
     C     4.0415398102    4.0222028439    3.6671034574
     C     2.7954946956    3.1385045547    3.5646123288
     C     3.1106616731    1.8020836944    2.9566589941
     N     3.5125726326    0.8605950751    3.8245820324
     C     3.8125717857   -0.3446870396    3.3523813177
     C     3.6905122280   -0.6548281854    1.9989167090
     N     3.2837878391    0.2564973819    1.1262880488
     C     3.0142234396    1.4867968935    1.5828169710
     C     2.6136201791    2.4844029328    0.5346175818
     O     2.6959951562    3.6898504003    0.7422977454
     C     2.1265426005    1.9395170582   -0.7489202126
     C     1.7553781169    2.7810898831   -1.7312044798
     C     1.2351440073    2.4164791854   -3.0443922413
     C     0.9186183303    3.4462774304   -3.9464035483
     C     0.4205253152    3.1656738358   -5.2099528657
     C     0.2396539633    1.8345008370   -5.5686608596
     C     0.5413871064    0.7858467933   -4.7015236814
     C     1.0368980770    1.0821981820   -3.4440242120
     N    -0.2823158876    1.5234606598   -6.8915461354
     O    -0.5452292233    2.4546196036   -7.6399594027
     O    -0.4332207336    0.3463096540   -7.1878103369
     H     3.7943360891    4.9693937265    4.1576836790
     H     4.4392658873    4.2433365274    2.6723524300
     H     4.8226347245    3.5268076952    4.2538377637
     H     2.0276504407    3.6520777756    2.9827845874
     H     2.4024446500    2.9451707452    4.5686527642
     H     4.1472749796   -1.0919577829    4.0689438197
     H     3.9167241236   -1.6500750480    1.6238681343
     H     2.0792015131    0.8613931577   -0.8494613023
     H     1.8496333978    3.8490268783   -1.5355183212
     H     1.0667191287    4.4804325242   -3.6478784380
     H     0.1746054970    3.9572376110   -5.9080558953
     H     0.3866565549   -0.2396359081   -5.0158038102
     H     1.2706111709    0.2671714721   -2.7667402563
