46
-1.1090498604815891e+03 frame 68   xyz file generated by TeraChem
     C     4.3522500249   -2.5828571686    4.2614911586
     C     4.4217988656   -2.4961136804    2.7349278797
     C     5.6728258428   -1.8045918107    2.2726946614
     N     6.7409691634   -2.6031247266    2.1241332213
     C     7.8847700155   -2.0579967003    1.7221422988
     C     7.9852559862   -0.7004685170    1.4270839706
     N     6.9384259589    0.1044751702    1.5554654524
     C     5.7889403388   -0.4235039336    1.9956901251
     C     4.6559522571    0.5514312977    2.1774489089
     O     3.7208883797    0.2828037310    2.9298575862
     C     4.7394650594    1.8051142717    1.4240827780
     C     3.7638935448    2.7320789652    1.5482048106
     C     3.6582314884    4.0082088912    0.8681022972
     C     2.5510809185    4.8355456334    1.1399512911
     C     2.3929666206    6.0572664374    0.5132445163
     C     3.3465221880    6.4963755554   -0.4168266678
     C     4.4599090684    5.6913241483   -0.7013756003
     C     4.6038856725    4.4684761495   -0.0630905471
     O     3.1071528986    7.6974096264   -0.9829915644
     C     4.0447897196    8.1877202548   -1.9491601898
     C     3.5522633755    9.5206842185   -2.4307407333
     C     3.9199375512   10.6932093908   -1.7656727019
     C     3.4420171674   11.9286237871   -2.1960098867
     C     2.5901842721   12.0008791541   -3.2974515521
     C     2.2182683072   10.8354272157   -3.9662057090
     C     2.6975806810    9.6015234383   -3.5330394149
     H     3.4578427010   -3.1340138890    4.5702524253
     H     4.3088044728   -1.5813866821    4.6988200909
     H     5.2294459673   -3.1025790880    4.6620741442
     H     3.5367990832   -1.9813283678    2.3558601646
     H     4.4442167768   -3.5070558466    2.3128933094
     H     8.7434012500   -2.7184267994    1.6191934956
     H     8.9184476345   -0.2648250733    1.0776493065
     H     5.5960209711    1.9428260700    0.7741266296
     H     2.9521576269    2.4968708541    2.2380169978
     H     1.8052098068    4.5018980748    1.8576270657
     H     1.5372622633    6.6919125041    0.7237941456
     H     5.2112217949    6.0094413114   -1.4154029594
     H     5.4722077241    3.8596464922   -0.2982834385
     H     4.1154471310    7.4747041405   -2.7793427248
     H     5.0321231027    8.2814592542   -1.4810097088
     H     4.5881806702   10.6356749817   -0.9091277816
     H     3.7370989683   12.8353554301   -1.6744804911
     H     2.2197531974   12.9648087644   -3.6366407837
     H     1.5573341785   10.8879929031   -4.8273915686
     H     2.4106653231    8.6915922637   -4.0557778380
