40
-8.9768124434897686e+02 frame 70   xyz file generated by TeraChem
     C     3.8438667377    3.5454994965    3.8820303792
     C     2.6884894970    2.5653373522    3.6634982603
     C     3.1379621879    1.3308278748    2.9341192868
     N     3.6174621824    0.3527050083    3.7179712343
     C     4.0424957212   -0.7669198648    3.1407291602
     C     3.9740116667   -0.9503162541    1.7621617104
     N     3.4932525066   -0.0004292969    0.9701601738
     C     3.0916620395    1.1471201109    1.5327289579
     C     2.6061521708    2.2065655571    0.5769149835
     O     2.5841513747    3.3893789044    0.9257453218
     C     2.1866550370    1.7573651379   -0.7454137025
     C     1.7666990254    2.6634490076   -1.6644419325
     C     1.3064070331    2.4251241176   -3.0078754317
     C     0.9202637619    3.5179508182   -3.8084935892
     C     0.4742100923    3.3600555511   -5.1055241893
     C     0.3886559248    2.0707534681   -5.6885692617
     C     0.7724995273    0.9639584180   -4.8841392937
     C     1.2153042872    1.1439970015   -3.5913681464
     N    -0.0433982197    1.8979030554   -6.9674957216
     C    -0.4219567738    3.0455253232   -7.7668206388
     C    -0.1348607599    0.5676738852   -7.5349633108
     H     3.5032521435    4.4128484936    4.4573845731
     H     4.2301889893    3.8988910390    2.9217539441
     H     4.6605682637    3.0681661592    4.4344793667
     H     1.8864956026    3.0619491395    3.1147434188
     H     2.3002215207    2.2382266814    4.6344697852
     H     4.4382978419   -1.5449083988    3.7904763519
     H     4.3058039438   -1.8760541859    1.2975078522
     H     2.2266850905    0.6945748989   -0.9546105735
     H     1.7801942067    3.7083024811   -1.3502797150
     H     0.9756791119    4.5208057354   -3.3896844293
     H     0.1888143016    4.2374979893   -5.6744307288
     H     0.7211008385   -0.0422076697   -5.2843674777
     H     1.4992443490    0.2674016386   -3.0148850339
     H     0.4115731004    3.7515191728   -7.8728810356
     H    -1.2720784094    3.5822234255   -7.3258004035
     H    -0.7101029324    2.7072213257   -8.7622408483
     H    -0.8292825583   -0.0659981029   -6.9682210783
     H     0.8435130745    0.0705093513   -7.5563853529
     H    -0.5012620570    0.6420361384   -8.5590478259
