32
-8.6300973358899887e+02 frame 37   xyz file generated by TeraChem
     C     4.7178996201   -3.2231125188   -3.9400272100
     C     5.2888007136   -3.0189325704   -2.5340966507
     C     4.2348410762   -2.5454764648   -1.5742102468
     N     3.5362050033   -3.5223256745   -0.9745963102
     C     2.5751165256   -3.1799708413   -0.1232723041
     C     2.3003948943   -1.8469118658    0.1741653605
     N     2.9872265568   -0.8669616960   -0.3966364447
     C     3.9386751053   -1.1945096555   -1.2812851697
     C     4.6480548057   -0.0334889724   -1.9243066459
     O     5.2812271567   -0.1839352085   -2.9665166480
     C     4.5342074035    1.2666492970   -1.2485666808
     C     5.1398508330    2.3523945884   -1.7710351549
     C     5.1384905289    3.7058343458   -1.2363743083
     C     4.4707885154    4.0604441555   -0.0496703973
     C     4.4909287206    5.3648688523    0.4176550652
     C     5.1872440805    6.3237722061   -0.3101194898
     C     5.8618498666    6.0198666539   -1.4829849117
     C     5.8309383152    4.7074198809   -1.9377398634
     F     5.2032531846    7.5873059271    0.1425180821
     H     5.4903241848   -3.6149835606   -4.6100340332
     H     4.3562032163   -2.2749480088   -4.3484045540
     H     3.8867447599   -3.9363962846   -3.9227197800
     H     6.1176775724   -2.3102848513   -2.5756286980
     H     5.6610735173   -3.9747736674   -2.1498631378
     H     2.0131244498   -3.9853200917    0.3453335647
     H     1.5237331937   -1.5739552918    0.8847825198
     H     3.9559155795    1.3075544478   -0.3331304704
     H     5.6936794401    2.2111162764   -2.6995640133
     H     3.9279806395    3.3094755992    0.5164327066
     H     3.9783166189    5.6499675000    1.3308937479
     H     6.3941904612    6.7980795006   -2.0205496949
     H     6.3523134870    4.4490033547   -2.8560496967
