49
-1.8034221400076840e+03 frame 51   xyz file generated by TeraChem
     N     3.0732116335   -0.3307622902   -2.6463255949
     C     3.8130326265   -0.5494276532   -1.7706875083
     C     4.7837066872   -0.7229323918   -0.7592016170
     C     5.7017576938    0.3384810855   -0.6403572753
     C     5.7921101513    1.6050566270   -1.2482046304
     C     6.9268761524    2.2089456760   -0.7439267806
     N     7.5588096114    1.3207349496    0.0882265828
     N     6.7643018695    0.2100484936    0.1938074357
     C     7.2125151599   -0.9887987981    0.7980384595
     N     8.3896271802   -1.1093029967    1.2861268165
     C     6.1669401039   -2.0126141384    0.8008985851
     C     4.9672926518   -1.8760828694    0.0602561551
     C     3.9714007063   -2.9231727889    0.1493560356
     C     2.6186519868   -2.8263520533   -0.5068506923
     S     1.2936222955   -3.5908910118    0.4693633571
     C     2.0441226290   -5.1528773111    0.7861769722
     C     3.4399234868   -5.2488564906    0.9409018413
     C     4.2898785832   -4.0635482889    0.8214589641
     O     5.4633547051   -4.2138226792    1.4592908342
     C     6.4315593101   -3.2217900253    1.5436201537
     O     7.3879031860   -3.5071883034    2.2302701189
     C     4.0049123598   -6.4942189411    1.2512104555
     C     3.2034518960   -7.6159533112    1.4162636549
     C     1.8197799111   -7.5060010983    1.2810313068
     C     1.2421583628   -6.2801701714    0.9644865287
     C     7.4674197140    3.5352679508   -0.9827482686
     C     6.6513222191    4.5326132679   -1.5452848708
     C     7.1496436392    5.7965695634   -1.7875737536
     C     8.4824257678    6.1044047500   -1.4695986945
     C     9.3067624596    5.1208699040   -0.9094131168
     C     8.7969278382    3.8506176663   -0.6747619155
     O     8.8735272540    7.3630797401   -1.7412659049
     C    10.2006739039    7.7412177510   -1.4042621670
     H     5.1098128977    2.0029691126   -1.9845280171
     H     8.0059055575    1.6294852238    0.9482025876
     H     8.9519470742   -0.2758677897    1.1168439838
     H     2.6209455367   -3.2582301038   -1.5142534978
     H     2.2960937827   -1.7888473060   -0.5911670340
     H     5.0813303262   -6.5705501027    1.3646112903
     H     3.6570482149   -8.5742046244    1.6513412477
     H     1.1859745501   -8.3786931135    1.4119294710
     H     0.1652910704   -6.1951669380    0.8479029245
     H     5.6128897375    4.3166037315   -1.7793505888
     H     6.5225956174    6.5720436450   -2.2168241354
     H    10.3418537288    5.3314097442   -0.6653996496
     H     9.4587099021    3.0923428807   -0.2641998684
     H    10.2913296193    8.7901747841   -1.6876591360
     H    10.9340850602    7.1464814599   -1.9602458286
     H    10.3796175968    7.6339054679   -0.3286113758
