32
-1.2233010138502027e+03 frame 57   xyz file generated by TeraChem
     C     4.3641901017    3.9996658323   -3.6242305964
     C     2.9155284361    3.5098200728   -3.5460281573
     C     2.8378315747    2.0723339476   -3.1177786447
     N     2.9058258808    1.1784383149   -4.1166849405
     C     2.8509040973   -0.1138492482   -3.8117679059
     C     2.6973628354   -0.5512719477   -2.4978017229
     N     2.6173091948    0.3151490626   -1.4973588267
     C     2.7062724075    1.6205571489   -1.7850141560
     C     2.6627337685    2.5445075260   -0.5991094233
     O     3.0727982930    3.6985689690   -0.6845014129
     C     2.1197723902    1.9907959573    0.6518492839
     C     2.0721650116    2.7591869708    1.7579095480
     C     1.5639240144    2.3868306502    3.0708393826
     C     1.6340164065    3.3291857456    4.1089598347
     C     1.1725452406    3.0354741644    5.3860473982
     C     0.6300231243    1.7777072598    5.6285796685
     C     0.5420011380    0.8179640225    4.6202733422
     C     1.0077512225    1.1266218787    3.3514771668
    Cl     0.0472155790    1.3908104066    7.2232282553
     H     4.3952824573    5.0345245034   -3.9806107472
     H     4.9477358585    3.3821153245   -4.3155892239
     H     4.8345553484    3.9604593567   -2.6376464206
     H     2.4555367738    3.5708386523   -4.5382457576
     H     2.3512483784    4.1449346613   -2.8606936034
     H     2.9193000492   -0.8237047435   -4.6335664531
     H     2.6325753966   -1.6098043835   -2.2573023387
     H     1.7720420357    0.9644263954    0.6368772735
     H     2.4585410628    3.7751819880    1.6718247190
     H     2.0596282349    4.3095553311    3.9102019844
     H     1.2327234983    3.7713964034    6.1813192467
     H     0.1141212591   -0.1571091385    4.8299525393
     H     0.9350360556    0.3747835728    2.5714425625
