32
-7.7642652263281093e+02 frame 33   xyz file generated by TeraChem
     C     5.4817874328   -4.7624518464   -2.0752872731
     C     5.5228131654   -3.2898322952   -1.6962389345
     C     4.4327915108   -2.8566695108   -0.7525555334
     N     3.6248346041   -3.8171334828   -0.2863732363
     C     2.6468797884   -3.4760066018    0.5484483292
     C     2.4401797322   -2.1557843005    0.9348712733
     N     3.2245235940   -1.1861144641    0.4818112973
     C     4.2211055085   -1.5130677692   -0.3486332394
     C     5.0837956946   -0.3704982700   -0.8047057171
     O     6.1016274226   -0.5716048574   -1.4616057160
     C     4.6537965623    0.9876806438   -0.4258973174
     C     5.3911987471    2.0475096460   -0.8098249307
     C     5.1242109609    3.4545360658   -0.5404315491
     C     4.0148879365    3.8989780081    0.1989314517
     C     3.8032497794    5.2512764635    0.4276925548
     C     4.7135772189    6.1674993554   -0.0906264067
     C     5.8221879521    5.7719478681   -0.8258480658
     C     6.0176241226    4.4125586651   -1.0443659577
    Br     4.4173561907    8.0703723319    0.2275052873
     H     6.2949647888   -4.9813842158   -2.7750928010
     H     4.5355120869   -5.0277098587   -2.5574596905
     H     5.6002286748   -5.4090309696   -1.2007367618
     H     5.4760376607   -2.6599153918   -2.5921308759
     H     6.4890930396   -3.0378535551   -1.2423907634
     H     2.0068295211   -4.2747474702    0.9179271422
     H     1.6350498782   -1.8813142251    1.6122781482
     H     3.7442686149    1.0854654788    0.1546823151
     H     6.2909468125    1.8405817093   -1.3896643176
     H     3.3043562705    3.1841273532    0.6030182853
     H     2.9437164572    5.5854581749    0.9988938040
     H     6.5201988122    6.5024016340   -1.2205581675
     H     6.8810795016    4.0863555332   -1.6187423414
