57
-1.6135998621905374e+03 frame 90   xyz file generated by TeraChem
     C     6.2116416545   -0.6225883134   -3.2362233951
     C     6.0382671103   -0.8499480598   -1.7512013097
     O     6.6688091385    0.2086168060   -1.0559652504
     C     6.5788638762    0.0611743013    0.3428705918
     C     7.2708620494    1.2398175658    1.0046943935
     C     6.5372620382    2.5297766697    0.6784166644
     N     7.1209141541    3.7573077048    1.2237972517
     C     6.5625806741    5.0082046654    1.0085836282
     N     5.4299799447    5.1072681099    0.2509306865
     C     4.6892996251    6.2350171500   -0.0605840401
     C     3.5350066097    6.0406117256   -0.8452013593
     C     2.7352162453    7.1078475771   -1.1975084698
     C     3.0856279958    8.3885939960   -0.7681964279
     C     4.2233650871    8.6024237835    0.0058247926
     C     5.0272062104    7.5328664210    0.3618945396
     N     2.2527067447    9.5091809400   -1.1318149643
     O     1.2468404987    9.2934003784   -1.8002152510
     O     2.5864457534   10.6286856103   -0.7574273511
     N     7.2039552884    5.9961227805    1.5814770964
     C     8.2584679244    5.3856300821    2.2265841787
     C     8.2269741560    3.9780186773    2.0188479667
     C     9.1931876580    3.1511349284    2.5809965087
     C    10.1716866288    3.7705167877    3.3478476883
     O    11.1115176502    2.9397776870    3.8766732263
     C    12.1215765706    3.3736826166    4.6792169569
     O    12.9093124860    2.5124797364    5.0411583925
     C    12.1705365303    4.7919546320    5.0159553825
     C    11.2868647376    5.6719965778    4.4291591924
     C    10.2381990970    5.1594667086    3.5750606140
     C     9.2503898749    5.9721446950    2.9909488365
     C    11.3562491168    7.1586953106    4.6017780810
     C    13.1836516768    5.2537902497    6.0301022966
     O    12.9907636863    6.2557655955    6.7208518359
     N    14.3202504915    4.5314448479    6.1208110509
     H     5.7337182896   -1.4293243609   -3.8010683578
     H     7.2738753426   -0.5971942016   -3.5005715350
     H     5.7568502017    0.3268250801   -3.5379018990
     H     6.4843964162   -1.8118063364   -1.4502699127
     H     4.9696969569   -0.8899400746   -1.4844860691
     H     7.0634341419   -0.8749962551    0.6614729976
     H     5.5224625571    0.0088066652    0.6560401651
     H     8.3040849281    1.2795702579    0.6439842650
     H     7.2860409233    1.0631369584    2.0851092955
     H     5.5099400770    2.4526540405    1.0583857077
     H     6.4897460227    2.6328056247   -0.4118794168
     H     5.0708849582    4.2436779473   -0.1340063057
     H     3.2714450486    5.0385864744   -1.1735657970
     H     1.8455680519    6.9603705467   -1.7984458686
     H     4.4741509489    9.6068315626    0.3270687804
     H     5.9134022727    7.6856944167    0.9629448330
     H     9.2283445598    2.0775900117    2.4613929756
     H     9.2436810719    7.0458881615    3.1399111988
     H    12.2775580263    7.4730073965    5.0835409696
     H    10.5184993603    7.5064432948    5.2189546137
     H    11.2616503800    7.6438408766    3.6253533020
     H    14.3325683175    3.5923810724    5.7383798221
     H    14.9337443320    4.7480933309    6.8948356271
