36
-1.4497424754941212e+03 frame 41   xyz file generated by TeraChem
     C     1.5733180780   -0.1457472779   -0.7019343641
     C     2.3791013104    0.6591219099    0.2940069663
     O     3.0589379589    1.7547151107   -0.3481057254
     C     4.2425098096    1.4787261807   -0.9141109592
     O     4.7636395509    0.3753765300   -0.8962356475
     C     4.8288382804    2.6550879370   -1.5472844607
     C     4.3085677558    3.9526466969   -1.6259820672
     C     5.2064417140    4.7671640020   -2.3099282149
     N     6.2869296274    3.9647107776   -2.6533796695
     C     6.0716537434    2.6689952691   -2.2074402215
     C     7.0551870164    1.7041381043   -2.4896913590
     C     8.1599755787    2.1009511624   -3.1931813591
     C     8.2469536715    3.4517881656   -3.6098527374
     N     7.3462027858    4.3701449441   -3.3617127703
     C     5.1651114152    6.2159424047   -2.5114061994
     O     6.1783312366    6.8910944698   -2.6640299086
     C     3.8249121626    6.8767779020   -2.4862384668
     C     2.6659065619    6.2620973225   -2.9721658480
     C     1.4544376129    6.9456145892   -2.9877756204
     C     1.4105017995    8.2487121662   -2.5026839466
     C     2.5520710901    8.8864035954   -2.0200856049
     C     3.7565950510    8.1974221125   -2.0271370383
    Cl    -0.1045658559    9.1075451820   -2.5067043775
     H     1.0195348317   -0.9309263131   -0.1763882893
     H     2.2283315020   -0.6202838617   -1.4384312794
     H     0.8540755075    0.4915050696   -1.2260939150
     H     3.1182999154    0.0392017599    0.8073083328
     H     1.7363087264    1.1387064508    1.0352163168
     H     3.3755613134    4.2859266111   -1.1935780543
     H     6.9039125091    0.6880214070   -2.1452384747
     H     8.9558224356    1.4081237449   -3.4431694935
     H     9.0996467711    3.8024953278   -4.1837572784
     H     2.7061692381    5.2530123705   -3.3707710537
     H     0.5578837197    6.4737491322   -3.3765097307
     H     2.4956771280    9.9047132293   -1.6490608596
     H     4.6607267503    8.6795802858   -1.6677594025
