69
-2.0849186366399153e+03 frame 137   xyz file generated by TeraChem
     C     2.9828941057    0.3173134000   -1.0719693934
     C     4.1961012505   -0.4841842834   -0.6535983293
     O     4.9103414382    0.1817163695    0.4055908365
     C     5.8225643007    1.0937234079    0.0478036699
     O     6.1091924397    1.3546899254   -1.1023834039
     C     6.4180044134    1.7613039019    1.2610575195
     C     5.3844068032    2.6508446761    1.9636064782
     C     5.8992197972    3.2700099672    3.2515449813
     N     6.9442350208    4.2503680296    2.9914550868
     C     7.6410779780    4.8918093636    3.9267749256
     C     7.4021899861    4.6195336304    5.2876969213
     C     8.1126634941    5.2868328172    6.2560124383
     O     7.8355605429    4.9936779569    7.5400708353
     C     8.4991952369    5.6290517313    8.5403288588
     C     8.1869998540    5.3124640696    9.8362897830
     C     8.8720652913    5.9697826626   10.8858782385
     N     8.5740880203    5.6769032395   12.1597684644
     C     9.1904444307    6.2730554797   13.3305203331
     C     8.5492003548    5.7166158101   14.5935469374
     C     9.1611531407    6.2978511512   15.8591396607
     C    10.5545369251    5.7914170665   16.1398721891
     O    11.0957383239    4.8735831817   15.5564697917
     O    11.1198596990    6.4755729818   17.1400887026
     C    12.4396687078    6.0654351881   17.5494187465
     C    12.3788052505    4.9234221886   18.5400400832
     C     9.8741384711    6.9409158286   10.5654512672
     C    10.1650140964    7.2376553024    9.2626604474
     C     9.4878058834    6.5946822552    8.1963507642
     N     9.7713192028    6.8922445764    6.9193053611
     C     9.1096228449    6.2659748711    5.9617887097
     C     9.3732974041    6.5542452231    4.5638686104
     C     8.6534444135    5.8789426639    3.5475709287
     C     8.9419025085    6.1808594333    2.2039621574
     C     9.9025459795    7.1203409336    1.8761632252
     C    10.6071946974    7.7870748485    2.8858928402
     C    10.3448178066    7.5050020021    4.2129147724
    Cl     1.7820938520    1.1888891731    3.0454297698
     H     2.4089966944   -0.2448193916   -1.8163091021
     H     3.2801681320    1.2722796864   -1.5158365134
     H     2.3365634676    0.5135755360   -0.2104393600
     H     4.8786368081   -0.6525238928   -1.4901190919
     H     3.9100669069   -1.4472807930   -0.2253076352
     H     7.2856062491    2.3373105988    0.9277443999
     H     6.7621269835    0.9876526093    1.9576890813
     H     4.5007438653    2.0564434772    2.2196099020
     H     5.0459026365    3.4435204056    1.2833578690
     H     6.3015139543    2.4875907503    3.9070669469
     H     5.0719752515    3.7565792352    3.7845744937
     H     7.0838416494    4.5081547672    2.0242771211
     H     6.6536178764    3.8996044061    5.5944913864
     H     7.4238861840    4.5701735418   10.0502800929
     H     7.8595142240    4.9790285186   12.3228383762
     H     9.0645327074    7.3638924939   13.3000785170
     H    10.2671745536    6.0621326037   13.3326005587
     H     8.6556071171    4.6254741228   14.6056919040
     H     7.4766175503    5.9424346210   14.5814154210
     H     8.5468278580    6.0350425600   16.7297391012
     H     9.1856526740    7.3937783664   15.8308058550
     H    12.8736760103    6.9610157724   17.9990907041
     H    13.0160662117    5.7964229763   16.6605373128
     H    11.7789146676    5.1971962329   19.4138023423
     H    13.3908358733    4.6799430626   18.8806080750
     H    11.9464731693    4.0298713251   18.0803635858
     H    10.4063188575    7.4443459550   11.3646189772
     H    10.9223569874    7.9741284064    9.0114027896
     H     8.4229577535    5.6828148206    1.3907339346
     H    10.1075946816    7.3362761403    0.8319541475
     H    11.3613113715    8.5248498741    2.6273325527
     H    10.8836266011    8.0107746591    5.0071655296
