66
-1.9714843163540982e+03 frame 122   xyz file generated by TeraChem
     C     6.1005814894    2.7675097774   -4.4428609743
     C     4.9551954748    2.0977114309   -3.7169174087
     O     5.3015803817    1.8111837244   -2.3471201308
     C     5.9530825318    0.6677244556   -2.1101706620
     O     6.2702108278   -0.1234374100   -2.9749418455
     C     6.2749206834    0.4962945465   -0.6471174167
     C     5.1532426955    0.9032524098    0.3077474418
     C     5.4989824165    0.6175846480    1.7614888615
     N     6.6053256820    1.4544590278    2.2008851751
     C     7.3564998451    1.2533224604    3.2815256580
     C     7.1070476255    0.1526428784    4.1206545220
     C     7.8961689248   -0.0666699518    5.2277301970
     O     7.6117618799   -1.1401163873    5.9862423504
     C     8.3511196440   -1.4070961887    7.0940388713
     C     8.0366407383   -2.5164196755    7.8401022513
     C     8.8036795558   -2.8080592933    8.9894275064
     N     8.5249643055   -3.8740833825    9.7594870084
     C     7.4994060677   -4.8690565715    9.4976833625
     C     7.9152620883   -5.9066069218    8.4614457641
     C     9.9006395624   -1.9436688982    9.3608788563
     C    10.1747305988   -0.8492590669    8.5835454826
     C     9.4194813428   -0.5367458316    7.4261749449
     N     9.7115432733    0.5399211717    6.6770100119
     C     8.9801806068    0.7823176418    5.6046911926
     C     9.2559569732    1.9320860943    4.7579860184
     C     8.4536000737    2.1758564758    3.5940774890
     C     8.7509027902    3.2700690892    2.7944924491
     C     9.8074533571    4.1478784679    3.0997328811
     C    10.1094412078    5.2692056676    2.2812660380
     C    11.1485695360    6.1045408049    2.6053681376
     C    11.9348791906    5.8602040107    3.7603166391
     C    11.6684164022    4.7860145648    4.5714140983
     C    10.5998245451    3.9020602649    4.2644124325
     C    10.2980693873    2.7888591483    5.0671325534
     C    10.7129840906   -2.2528705161   10.5821848918
    Cl     1.4184550825    1.4338869623   -1.5006564348
     H     5.7867418185    3.0315767518   -5.4584011768
     H     6.9615094819    2.0962549475   -4.5125770143
     H     6.4065535601    3.6842049784   -3.9286771946
     H     4.6603620970    1.1655825385   -4.2050722594
     H     4.0842710295    2.7522064004   -3.6427111057
     H     7.1766777258    1.0925354559   -0.4489513489
     H     6.5499263098   -0.5526084680   -0.5007642501
     H     4.2392136025    0.3485582043    0.0695733017
     H     4.9123577960    1.9652034550    0.1833887536
     H     5.7863274795   -0.4336003675    1.8722983327
     H     4.6254098265    0.7956432944    2.4020929188
     H     6.7424224194    2.3061850870    1.6744347141
     H     6.2900152247   -0.5300631595    3.9234534709
     H     7.2150882661   -3.1506426234    7.5294037392
     H     9.1437586781   -4.0647444629   10.5344573280
     H     6.5798979615   -4.3579995080    9.1921235572
     H     7.2858299356   -5.3541371739   10.4540345086
     H     8.1345517642   -5.4397490737    7.4957872470
     H     7.1068256758   -6.6306004182    8.3152039118
     H     8.8072637687   -6.4483804406    8.7922492577
     H    10.9942993094   -0.1844642633    8.8420486392
     H     8.1822962153    3.4913442642    1.8956421625
     H     9.5028149858    5.4509508603    1.3974775330
     H    11.3750036998    6.9606632403    1.9760871857
     H    12.7540436964    6.5324982491    4.0000180418
     H    12.2677570095    4.5934872047    5.4575973785
     H    10.8959528010    2.5893259602    5.9512867352
     H    10.0911501550   -2.2660779028   11.4870235181
     H    11.4946682770   -1.5027417098   10.7239638255
     H    11.2006189561   -3.2337140881   10.5054251598
