54
-1.3341707339000945e+03 frame 59   xyz file generated by TeraChem
     C     2.4109326786   -2.5079278160   -1.4630936701
     C     2.1611092079   -1.2133533986   -0.7009285017
     C     2.8620591108   -1.1576670364    0.6544671610
     N     4.3146606641   -1.2116513191    0.5655230783
     C     5.1744429647   -0.1732965531    0.2441690983
     N     4.6856274861    1.0617176685   -0.0444305020
     C     5.5305735562    2.1869960734   -0.2577288346
     C     6.2595766952    2.2927014238   -1.4528351262
     C     6.1792247034    1.2359230420   -2.5146672532
     C     7.0588682456    3.4248376926   -1.6344821713
     C     7.1145035644    4.4287999035   -0.6733015846
     C     6.3672132532    4.3131876283    0.4945184029
     C     5.5697628860    3.1906401883    0.7248652137
     C     4.7804826939    3.0561681642    1.9970324513
     N     6.4445277540   -0.5145694710    0.2307062020
     C     6.4422239756   -1.8570551955    0.5548590275
     C     5.1129054869   -2.3108507559    0.7705967890
     C     4.8184514262   -3.6196173608    1.1159623035
     C     5.9070815438   -4.4758983382    1.2376305170
     O     5.6124943989   -5.7598057527    1.5802240849
     C     6.5552852929   -6.7325424704    1.7085785440
     O     6.1331684652   -7.8248906948    2.0612110964
     C     7.9424919576   -6.3828892562    1.4318872614
     C     8.2840956221   -5.0730461707    1.1615740611
     C     7.2449283548   -4.0767603837    1.0385831515
     C     7.5019804653   -2.7336790152    0.6897451776
     C     9.6990668967   -4.6026317632    1.0108218460
     C     8.9714391489   -7.4822819726    1.4304677976
     O    10.0090494291   -7.3946231983    0.7713094652
     N     8.7115906889   -8.5529459452    2.2111809134
     H     1.8517198208   -2.5170490988   -2.4045171846
     H     2.0960372609   -3.3787814583   -0.8761063970
     H     3.4716257510   -2.6332227245   -1.7079153398
     H     1.0878543168   -1.0903182555   -0.5100965296
     H     2.4706728588   -0.3517899718   -1.3055588963
     H     2.5505080044   -1.9991222027    1.2806518863
     H     2.5838434757   -0.2495635931    1.2012779377
     H     3.7554400738    1.2669525774    0.2976396170
     H     5.1390472893    0.9555394744   -2.7165493396
     H     6.7005439093    0.3241938559   -2.2006346724
     H     6.6316737993    1.5885213103   -3.4458329172
     H     7.6317024179    3.5203658140   -2.5540266940
     H     7.7366993035    5.3048833104   -0.8369810940
     H     6.4061567839    5.0959183109    1.2484583479
     H     5.0167071239    3.8734967784    2.6839128323
     H     4.9963949163    2.1086956240    2.5049193905
     H     3.6982519467    3.0812921197    1.8132083049
     H     3.8121289416   -3.9903776659    1.2781548925
     H     8.5135792709   -2.3858844814    0.5136839478
     H    10.4159853019   -5.3541317642    1.3285503540
     H     9.8428037188   -3.6833260762    1.5868705043
     H     9.9083966406   -4.3637254322   -0.0393385667
     H     7.7590923733   -8.7063939758    2.5239187012
     H     9.3210302602   -9.3521752537    2.1011146851
