33
-1.0290505797878650e+03 frame 69   xyz file generated by TeraChem
     O    -4.0871382455    3.2260606380    0.2623825229
     C    -3.0402861286    2.6755168947    0.9257159474
     C    -3.1653498024    2.1682180525    2.2190269717
     C    -2.0457881356    1.6247160308    2.8522823215
     O    -2.1049300849    1.1243787385    4.1117923048
     C    -0.8122303679    1.5769282199    2.2019909509
     C    -0.7035488790    2.0907586551    0.9101582588
     C    -1.8089016812    2.6432205832    0.2669327437
     C     0.6049774079    2.0025349002    0.1694138777
     C     0.8742816378    0.6209322622   -0.3980472381
     C     2.2189175612    0.5714196318   -1.0957472321
     O     2.3862078658   -0.1608875758   -2.0630384881
     C     3.2518405093    1.4134549941   -0.4891240305
     C     2.9215058727    2.2306996200    0.6210841580
     O     1.6556703405    2.3597414140    1.0775989019
     C     3.8798402301    2.9495867052    1.3246693367
     C     5.2111866877    2.8724374676    0.9195223518
     C     5.5825555356    2.1039610146   -0.1866442082
     C     4.6180146553    1.3886212454   -0.8837968204
     O     4.9587711460    0.6396014071   -1.9480500649
     O     6.1944684691    3.5394964588    1.5526739119
     H    -4.8764601979    3.2017120738    0.8251061024
     H    -4.1247373018    2.2025465702    2.7327445041
     H    -3.0073682486    1.2145758240    4.4548237231
     H     0.0460948577    1.1532441986    2.7132265017
     H    -1.7287778013    3.0547520323   -0.7352007205
     H     0.6123189765    2.7359842299   -0.6494695781
     H     0.0941865254    0.3348090691   -1.1088072294
     H     0.8739137082   -0.1151509978    0.4184968944
     H     3.5779429524    3.5710469027    2.1624058858
     H     6.6249497957    2.0714320435   -0.4914537653
     H     5.9177258332    0.7103099417   -2.0825458095
     H     5.8252977184    4.0307345992    2.3039870476
