32
-8.3752840137169278e+02 frame 39   xyz file generated by TeraChem
     C     2.7624456388   -0.1279294637   -1.4566955835
     C     2.6319539845   -0.2878794359    0.0428622550
     O     3.4236360106   -1.4276354736    0.4911030034
     C     4.4504578257   -1.0074269742    1.3125013027
     C     4.6099356111    0.5142123681    1.1042727328
     C     3.1498596612    0.8956043596    0.8588165450
     O     2.5829998724    0.9519148608    2.1534869260
     O     5.2107405388    1.1689467199    2.1755230258
     N     5.7048857633   -1.7350582168    0.9608750349
     C     5.8269138540   -2.3759364250   -0.2160832152
     C     7.0124154010   -3.0083304550   -0.5349939825
     C     8.0759193932   -2.9676216531    0.3605339178
     C     7.9293931291   -2.2895641511    1.5727356599
     C     6.7123567444   -1.6907790398    1.8480418261
     C     8.9686426793   -2.1870040974    2.6604407863
     O     8.6262418256   -1.8577023821    3.7922483774
     N    10.2318164601   -2.4819828210    2.3182563331
     H     2.5038717243   -1.0657919998   -1.9573907028
     H     3.7822204446    0.1501391402   -1.7442752681
     H     2.0771064593    0.6498795780   -1.8090802561
     H     1.5965207684   -0.5081790738    0.3196856096
     H     4.2651668028   -1.2425780146    2.3674854875
     H     5.2126802984    0.6924007848    0.2078000396
     H     3.0463215004    1.8473483919    0.3265954552
     H     1.7342234026    1.4151249237    2.1052494531
     H     4.4999641896    1.2966573479    2.8308353809
     H     4.9531260482   -2.3693224387   -0.8548740130
     H     7.0918820822   -3.5353498360   -1.4788280565
     H     8.9967539913   -3.4852476846    0.1105282862
     H     6.5317487462   -1.1676291632    2.7798610318
     H    10.5369665739   -2.6053846131    1.3641188769
     H    10.9504041561   -2.3813927688    3.0227037392
