41
-1.1427001786294838e+03 frame 100   xyz file generated by TeraChem
     C     1.3960400116    1.2438283533   -0.2561477523
     O     2.7872923902    1.4945593667   -0.3255708513
     C     3.2244316559    2.6974683829    0.1251405743
     C     2.4132820530    3.7042169047    0.6361414009
     C     2.9714933860    4.9119036928    1.0772591631
     C     4.3361623479    5.1100484517    1.0076280537
     C     5.1804107482    4.1061229937    0.4934930034
     C     4.6219270905    2.8919535544    0.0479508363
     O     5.3630549174    1.8915100720   -0.4565575554
     C     6.6098890504    4.3665675775    0.4422347031
     N     7.4107100478    3.4649755629   -0.0234241215
     N     8.7534441566    3.6266539624   -0.1101616154
     C     9.5197845411    4.6823012088    0.2912888749
     O     9.0355179376    5.6911426651    0.8049551047
     C    10.9986046133    4.5737177807    0.0545565197
     C    11.7053913005    5.7096691748    0.3341771285
     C    13.1157147625    5.7675099709    0.1388384654
     C    14.0153958022    6.7774312714    0.3421862610
     C    15.3304155757    6.2605997002   -0.0381514387
     C    16.4807020393    6.9636354775    0.0233169576
     C    15.1593030196    4.8795447132   -0.4811214364
     C    13.8289813412    4.5807943739   -0.3758040612
     C    13.0679809784    3.4029622686   -0.6514653888
     C    11.7219332301    3.3983184920   -0.4431938543
     O    10.9706452072    2.2896495996   -0.6751826235
     H     1.2521061638    0.2391968939   -0.6567098479
     H     0.8291556300    1.9619779132   -0.8611856834
     H     1.0348212588    1.2786544316    0.7790795071
     H     1.3399854433    3.5591740707    0.6964107042
     H     2.3215671657    5.6865922880    1.4731093345
     H     4.7804904467    6.0421043714    1.3479086621
     H     6.3084040620    2.1993423313   -0.4325513493
     H     6.9659758080    5.3266127250    0.8038870230
     H     9.2222622976    2.8180595570   -0.5023569509
     H    11.1653739622    6.5750928192    0.7061217449
     H    13.8224812613    7.7776021746    0.7119755628
     H    17.4305909274    6.5256817423   -0.2734256568
     H    16.4940818498    7.9928771147    0.3724748154
     H    15.9612697476    4.2364602164   -0.8232383453
     H    13.5558856381    2.5028805161   -1.0198661708
     H    11.5259032946    1.5780655805   -1.0333246939
