50
-1.7910602254235914e+03 frame 36   xyz file generated by TeraChem
     C     2.0583624169    0.1509383460   -1.1685766103
     O     3.0382345550    0.1395364151   -0.1402659503
     C     3.4525759295   -1.0538357213    0.3262045321
     C     3.0211470981   -2.2947018818   -0.1574016219
     C     3.5270029849   -3.4716153012    0.3770148334
     C     4.4734062001   -3.4508403150    1.4124284786
     C     4.8881778471   -2.1973677040    1.9001897749
     C     4.3988534714   -1.0159197661    1.3739647553
     O     4.8794333155    0.1804264932    1.8305821000
     C     3.9747392064    0.9072379500    2.6589218578
     C     5.0385778017   -4.6488768324    2.0046373935
     C     4.8237055746   -5.9319170218    1.6427154533
     C     5.4915956202   -7.0189416318    2.3659697275
     O     6.2297722531   -6.8328306134    3.3355816126
     C     5.2410550097   -8.3876143077    1.8768032149
     N     4.4429073982   -8.6588299952    0.8040569369
     N     4.3971322968   -9.9287456201    0.6062693690
     N     5.1737464238  -10.5114641021    1.5578523283
     C     5.7259626739   -9.5887696211    2.3804186188
     C     6.6050164566   -9.9102688567    3.5311795559
     C     5.3398210145  -11.9218787169    1.5721360975
     C     6.5883913431  -12.4615907009    1.3979383993
     C     6.7179835144  -13.8677910289    1.4166305291
     N     5.7149804967  -14.6998016235    1.5836190113
     C     4.4736153611  -14.1708173181    1.7586254406
     C     4.2161027981  -12.7666791253    1.7676713017
     C     2.8955151181  -12.3053432994    1.9838299874
     C     1.8678460434  -13.1956553238    2.1725932348
     C     2.1343707130  -14.5820717173    2.1490455729
     C     3.3991370061  -15.0728040481    1.9494748413
    Cl     0.8093814090  -15.6847007771    2.3880665935
     H     1.8620978960    1.2027076198   -1.3785233344
     H     1.1349659390   -0.3374639886   -0.8379475089
     H     2.4308615477   -0.3409435366   -2.0740524357
     H     2.2925072031   -2.3440047464   -0.9592556318
     H     3.1749707998   -4.4185933283   -0.0214988721
     H     5.6189338649   -2.1375851216    2.7031248874
     H     4.4868231297    1.8312802247    2.9346373979
     H     3.7374491020    0.3369311156    3.5652013828
     H     3.0506137668    1.1470543955    2.1237200196
     H     5.7220657981   -4.4865767042    2.8387488660
     H     4.1735424421   -6.2040317101    0.8171156308
     H     6.2525034870  -10.8004219811    4.0612357575
     H     6.6246034246   -9.0583632833    4.2105712282
     H     7.6312125829  -10.1016354140    3.1966517311
     H     7.4559311691  -11.8315180187    1.2322699171
     H     7.7030053505  -14.3091886519    1.2767707611
     H     2.6920716203  -11.2399244884    1.9971939499
     H     0.8552162177  -12.8443795142    2.3413797484
     H     3.6071441955  -16.1372906375    1.9376495478
