46
-1.6766680634322693e+03 frame 38   xyz file generated by TeraChem
     C     5.6276926261   -1.4169675908   -3.8564131497
     O     5.9764395953   -1.0159721769   -2.5400210357
     C     5.9620947321   -1.9463126476   -1.5644954167
     C     5.6501068417   -3.2992506960   -1.7631512479
     C     5.6644335519   -4.1723224162   -0.6853401035
     C     5.9830249794   -3.7358715628    0.6113493404
     C     6.2903589992   -2.3724397339    0.7857654574
     C     6.2841396572   -1.4901662743   -0.2781067237
     C     6.0066080247   -4.6125411412    1.7661959440
     C     5.7838304920   -5.9443994418    1.8026434230
     C     5.8476863810   -6.6649696917    3.0773650024
     O     6.0653824166   -6.1123638621    4.1579439582
     C     5.6314572347   -8.1229656311    3.0199480555
     N     5.4174255392   -8.7945783709    1.8518470821
     N     5.2473210795  -10.0459600067    2.0946021967
     N     5.3490478233  -10.2111348319    3.4398781147
     C     5.5903979694   -9.0352662846    4.0671471836
     C     5.7335445660   -8.8844015458    5.5356870213
     C     5.2114862184  -11.5060459081    4.0064008041
     C     6.2528592166  -12.0594778707    4.7060211603
     C     6.0790132788  -13.3490686011    5.2555213026
     N     4.9827720260  -14.0627345034    5.1334533311
     C     3.9443161678  -13.5187376083    4.4423884299
     C     3.9947610274  -12.2205641092    3.8507304091
     C     2.8550626381  -11.7209195549    3.1762999309
     C     1.7151962390  -12.4787531483    3.0768916445
     C     1.6839699943  -13.7675740083    3.6529069426
     C     2.7614841931  -14.2875491417    4.3231479233
    Cl     0.2258269325  -14.7060808061    3.5043665242
     H     5.6959045345   -0.5172450627   -4.4688407876
     H     4.6048916291   -1.8089192573   -3.8925643111
     H     6.3233433528   -2.1732505219   -4.2373113795
     H     5.3967941334   -3.6733178237   -2.7490269150
     H     5.4178591689   -5.2157877655   -0.8606121405
     H     6.5377588937   -2.0085225641    1.7803830539
     H     6.5221021076   -0.4395311199   -0.1403158676
     H     6.2353395502   -4.1323793081    2.7184250609
     H     5.5587187991   -6.5231044574    0.9123218799
     H     5.0389603547   -9.5405473066    6.0685118972
     H     5.5453380427   -7.8457439941    5.8072085286
     H     6.7508949132   -9.1387964844    5.8547226778
     H     7.1948053381  -11.5341445269    4.8237116888
     H     6.8987372861  -13.8008612212    5.8110748889
     H     2.8833201549  -10.7322009264    2.7313970425
     H     0.8396024309  -12.0966670223    2.5625018162
     H     2.7356367589  -15.2743906876    4.7726310415
