54
-1.9054565485201215e+03 frame 52   xyz file generated by TeraChem
     C     1.1851588378   -1.1034675359   -0.0704574931
     O     2.3583973046   -0.3745742010   -0.3905337050
     C     2.8652360680    0.4487564295    0.5541413884
     C     2.3221651301    0.6331971911    1.8224794568
     C     2.9402726832    1.5141092416    2.7235505449
     C     2.4126139473    1.7575157219    4.0582534362
     C     1.2779615389    1.2668395960    4.5968895453
     C     0.8934767849    1.6316541875    5.9668547878
     O     1.5766889457    2.3578529275    6.6906177103
     C    -0.3834192351    1.0851126867    6.4579015354
     N    -1.1717857099    0.2549405450    5.7160665901
     N    -2.2282773787   -0.0505440185    6.3819340864
     N    -2.1445068918    0.5842073352    7.5817427509
     C    -1.0052326137    1.3093867793    7.6803874311
     C    -0.6319325924    2.1292198543    8.8583459121
     C    -3.1743722578    0.4160822064    8.5442778725
     C    -2.8770112996   -0.1123489397    9.7742206878
     C    -3.9265746198   -0.2691460137   10.7061827220
     N    -5.1786392143    0.0508966518   10.4696795858
     C    -5.4800038071    0.5790304872    9.2522908391
     C    -4.5058597374    0.7971712670    8.2319223755
     C    -4.9048881806    1.3832883925    7.0068319416
     C    -6.2167338043    1.7251168037    6.7914292538
     C    -7.1732426610    1.4874086037    7.8023020588
     C    -6.8292863516    0.9317673847    9.0078493212
    Cl    -8.8296558487    1.9239979054    7.4951787381
     C     4.1057399181    2.1998862930    2.3514155678
     C     4.6488167020    2.0186808804    1.0791938583
     C     4.0326577464    1.1379046572    0.1779944528
     O     4.5855929512    0.9131913925   -1.0480714655
     C     4.1699239999    1.8493995605   -2.0411152888
     O     5.7605363442    2.6336624757    0.6161696352
     C     6.4358895672    3.5198237311    1.4931629167
     H     0.9519064444   -1.6956123478   -0.9562592863
     H     0.3471590111   -0.4323753866    0.1523749941
     H     1.3539567880   -1.7713393187    0.7823993944
     H     1.4269020405    0.0978448819    2.1152384192
     H     3.0054776216    2.4226982247    4.6860828679
     H     0.6110023631    0.6069703900    4.0512997262
     H    -1.5170010871    2.5526800792    9.3412885171
     H     0.0366757129    2.9299076915    8.5412493055
     H    -0.0988232738    1.5221730469    9.5994824759
     H    -1.8675669726   -0.4204096274   10.0254394919
     H    -3.7045218387   -0.6898499788   11.6851567420
     H    -4.1698932994    1.5622219422    6.2294425590
     H    -6.5238022561    2.1768182402    5.8538954989
     H    -7.5612579582    0.7554287692    9.7886528688
     H     4.5706703516    2.8741163745    3.0625335779
     H     4.6630094123    1.5538298715   -2.9695897817
     H     4.4764444689    2.8663055336   -1.7719862940
     H     3.0830496186    1.8155816989   -2.1779838513
     H     7.2882110554    3.9024394779    0.9303422148
     H     6.7937432363    2.9974577498    2.3882546325
     H     5.7902738431    4.3541687190    1.7915394131
