54
-1.7649266302371802e+03 frame 74   xyz file generated by TeraChem
     C     0.7902801721   -0.7695121121    3.5927656278
     O     1.9973274193   -1.5114887082    3.7741145583
     N     2.9754381503   -0.6906682844    4.3001605150
     C     4.2293978664   -0.8911160562    3.8485626970
     C     4.4981439600   -1.4049497991    2.5499126010
     C     5.7651604616   -1.7171144817    2.1089049900
     C     6.8764847513   -1.4730961564    2.9222778578
     C     6.6714263404   -0.9170505991    4.1745418913
     C     5.3932101229   -0.6322498665    4.6362086181
     N     5.2995353782   -0.0988204773    5.9732646037
     O     4.1912974745    0.2366602044    6.3963763822
     O     6.3204131167    0.0079485124    6.6341380415
     C     8.2642706819   -1.7584267991    2.4956723689
     O     9.2410672358   -1.5554681427    3.1862750184
     O     8.3123947761   -2.2889377497    1.2653701978
     C     9.6111467796   -2.5278375646    0.7486935198
     C    10.2396694413   -1.2124266881    0.2696264903
     O     9.5942117564   -0.1868607415    0.4245026031
     C    11.5868325841   -1.2833887543   -0.3417493143
     C    12.1956532382   -2.5461908561   -0.4431509909
     C    13.4546087785   -2.7156837992   -0.9860575199
     C    14.1767966456   -1.6136716195   -1.4604075955
     C    13.5921071246   -0.3160014871   -1.3798350581
     C    12.2877425118   -0.1373829460   -0.8203309407
     C    11.7613890804    1.1980643455   -0.7740671430
     C    12.4710850233    2.2616827844   -1.2413450665
     C    13.7760671560    2.1097063043   -1.8008667243
     C    14.3309534532    0.8031337065   -1.8649723882
     C    15.6314879505    0.6240405154   -2.4181728205
     C    16.1833715855   -0.6962436012   -2.4804637830
     C    15.4851968143   -1.7682470678   -2.0217375616
     C    16.3380122652    1.7398703685   -2.8862008257
     C    15.7842067626    3.0151468026   -2.8180635899
     C    14.5152701909    3.2004319422   -2.2812027549
     N     3.4440389916   -1.5151115116    1.5454579299
     O     3.3836431305   -2.5477964780    0.8998881363
     O     2.7447403893   -0.5333365342    1.3601327527
     H     0.0872633469   -1.4830462910    3.1600409569
     H     0.9499434110    0.0716713435    2.9141384865
     H     0.4139050722   -0.4162595881    4.5592396027
     H     2.8712234598   -0.5178306515    5.2987541673
     H     5.8884885263   -2.1190339742    1.1094120676
     H     7.5174480944   -0.7111729538    4.8195075963
     H     9.4702031746   -3.2206625029   -0.0843583253
     H    10.2354892756   -3.0018367902    1.5116628246
     H    11.6783199630   -3.4304483111   -0.0871090243
     H    13.8936991197   -3.7078297611   -1.0458927593
     H    10.7767683194    1.3456687610   -0.3544273266
     H    12.0438287177    3.2607026258   -1.1926678818
     H    17.1763237134   -0.8222462139   -2.9053887261
     H    15.9073477261   -2.7686978444   -2.0707363470
     H    17.3302738085    1.5958482868   -3.3068336554
     H    16.3464853639    3.8689166497   -3.1857625109
     H    14.0814945885    4.1960561440   -2.2278771642
