69
-1.9387714113851825e+03 frame 45   xyz file generated by TeraChem
     C     2.1607896327    3.1573235715   -2.3654354039
     O     2.1650178385    2.1318752592   -1.3642918116
     N     2.4409637253    2.6648338227   -0.1260116652
     C     3.7342503997    2.7955432148    0.2453620503
     C     4.7556752667    1.9840840351   -0.3114966669
     C     6.0981563603    2.1677528751   -0.0461488444
     C     6.5183820823    3.1290448754    0.8773344916
     C     5.5443396523    3.8933656225    1.5005507475
     C     4.1942750054    3.7406965200    1.2078564908
     N     3.2809996568    4.6241800626    1.8916703051
     O     2.0712058276    4.4780932585    1.7061119699
     O     3.7372392841    5.4789020035    2.6344100746
     C     7.9459529004    3.4087916206    1.2434085217
     O     8.2280031464    4.4283120913    1.8754977741
     N     8.8639420861    2.5056034695    0.8528141751
     C    10.2823163037    2.6648607885    1.0840508709
     C    11.0728209691    2.2431710349   -0.1506698376
     C    10.8176043571    3.1399123639   -1.3509920230
     O    11.1784311925    4.4577860458   -1.0131876416
     C    10.9029428861    5.3658275591   -2.0576749368
     C    11.4289167714    6.7329155397   -1.6739162511
     O    12.8304688807    6.7748692529   -1.5017750011
     C    13.5558999085    6.8167133610   -2.7128196074
     C    15.0373419931    6.7014981044   -2.4197737884
     O    15.4473059637    5.4096222981   -2.0198247176
     C    15.2565812682    5.1336156514   -0.6446275556
     C    15.9364360385    3.8329451313   -0.2998669641
     O    15.2189027504    2.7603443039   -0.8701959585
     C    15.7642341021    1.5078671275   -0.5233086985
     C    14.8325959190    0.4178633006   -0.9902506699
     O    13.6294133836    0.5164776738   -0.2627217711
     C    12.6793837141   -0.4606249311   -0.6248975886
     C    11.3579601202   -0.1432467143    0.0410105020
     O    10.6766527428    0.9411919640   -0.5684323640
     N     4.4336797592    0.8059896535   -1.1144119926
     O     3.6301580021    0.0158243269   -0.6519357526
     O     5.0534432408    0.6449413463   -2.1545383190
     H     1.9189566675    2.6406042679   -3.2957259641
     H     3.1457676974    3.6310842698   -2.4406973557
     H     1.3952949781    3.9081219597   -2.1417435189
     H     1.7730939442    3.3537220850    0.2090604693
     H     6.7968771731    1.5229847862   -0.5694114314
     H     5.8423705910    4.6445100802    2.2220407492
     H     8.5882690440    1.6389460495    0.4118060146
     H    10.5943206997    2.0642392608    1.9485045281
     H    10.4783033886    3.7137969153    1.3139204298
     H    12.1418849731    2.2655456335    0.0865606113
     H     9.7551723742    3.0856943364   -1.6370793781
     H    11.4136442855    2.7754173596   -2.2014865398
     H     9.8170348608    5.4379560492   -2.2319280856
     H    11.3603979762    5.0144891673   -2.9953519518
     H    10.9965163218    7.0242406115   -0.7106079376
     H    11.1059764862    7.4653959733   -2.4298220507
     H    13.3629784740    7.7658656141   -3.2406253018
     H    13.2652419753    5.9961986284   -3.3844456783
     H    15.3257616244    7.4491364054   -1.6643970357
     H    15.5837191668    6.9242715652   -3.3433621257
     H    14.1897991957    5.0689077354   -0.3983324862
     H    15.6981892607    5.9361597810   -0.0327468495
     H    15.9689121724    3.7296658311    0.7968739043
     H    16.9757194717    3.8449660466   -0.6664230470
     H    15.8923573562    1.4351131273    0.5687001023
     H    16.7538414115    1.3671957795   -0.9869291215
     H    15.3110067253   -0.5611137120   -0.8274171993
     H    14.6383573405    0.5229952702   -2.0692871344
     H    13.0159907589   -1.4621780981   -0.3087082926
     H    12.5397298592   -0.4818262496   -1.7170991644
     H    11.5162841496    0.0389476929    1.1129192335
     H    10.6964042143   -1.0098041916   -0.0596414835
