11
-3.5922126067264452e+02 frame 17   xyz file generated by TeraChem
     C     2.2765856932    1.4245145811   -0.5394584130
     O     2.6660386292    0.1013291950   -0.1658317577
     N     3.1461726600   -0.5800557667   -1.2855671418
     C     4.4014941786   -1.1401583683   -1.1166092153
     O     4.8359761195   -1.9820963588   -1.8745417010
     O     5.1093055539   -0.6313544936   -0.1096056038
     H     1.9484129021    1.8975068814    0.3882889790
     H     1.4487012221    1.3913917374   -1.2547106976
     H     3.1219848572    1.9719407241   -0.9674243307
     H     2.4485709101   -1.2215606325   -1.6526725669
     H     4.5162074141   -0.0430275128    0.4020023594
