67
-1.7200806733865766e+03 frame 58   xyz file generated by TeraChem
     C     7.2483204037    2.1122700560   -3.2956401454
     O     6.5302566602    1.5480102994   -2.1916392197
     C     5.8000015968    0.4720370098   -2.4706083611
     O     5.7283471480   -0.0330508648   -3.5713060683
     C     5.0658732465   -0.0871209980   -1.2516603042
     C     3.6056517559   -0.3883313049   -1.6256875443
     C     2.8611155104   -1.1198048977   -0.5385115296
     C     3.1705776081   -2.4695815541   -0.2686652708
     C     2.5308867313   -3.1995272064    0.7295866125
     C     1.5623802876   -2.5142419939    1.4424395425
     C     1.2219441916   -1.1827239499    1.2010952173
     C     1.8782127854   -0.4639522271    0.2008473506
     N     0.2180168498   -0.8163813807    2.0836463479
     C    -0.0103784475   -1.8835520290    2.7930671652
     O     0.7729655682   -2.9603577216    2.4586210481
     C    -0.9390308673   -2.1001966636    3.8963030718
     C    -0.7197739084   -3.2284549792    4.7038003273
     C    -1.5307005874   -3.5136135003    5.7855740364
     C    -2.6098137419   -2.6803306484    6.1080805293
     C    -2.8641837087   -1.5356273528    5.2986303705
     C    -2.0277205287   -1.2326107246    4.1805000707
     C    -2.3493957932   -0.0775377988    3.3916864303
     C    -3.4082551427    0.7199530107    3.6988241494
     C    -4.2530406785    0.4490424875    4.8201737390
     C    -3.9694954525   -0.6932209566    5.6178390437
     C    -4.8003931476   -0.9899526785    6.7364862459
     C    -4.5080381710   -2.1460732109    7.5309398551
     C    -3.4589564652   -2.9556776352    7.2281152609
     C    -5.8807282216   -0.1468205001    7.0301717538
     C    -6.1489396636    0.9689565482    6.2425760404
     C    -5.3446568174    1.2659579274    5.1475063115
     N     5.1565161762    0.7357728198   -0.0783285982
     C     6.1918715466    0.6076958472    0.7940953071
     O     7.0122508061   -0.2978261486    0.7551626018
     O     6.1476645790    1.6002627788    1.6963635695
     C     7.1340679100    1.6902907928    2.7717373243
     C     8.5296055746    1.8811339003    2.1901540524
     C     6.6952803361    2.9421421039    3.5201319070
     C     7.0408160460    0.4692095013    3.6779252773
     H     7.7628419319    2.9847832992   -2.8948369859
     H     6.5553371031    2.4049708026   -4.0878776480
     H     7.9678301652    1.3898776190   -3.6884061367
     H     5.5734969335   -1.0295101062   -1.0137037082
     H     3.0955941119    0.5545812071   -1.8574056605
     H     3.6222978986   -0.9799041250   -2.5465063889
     H     3.9362459776   -2.9605308998   -0.8650419439
     H     2.7734616341   -4.2380847399    0.9294569483
     H     1.6257468821    0.5739327476    0.0014350589
     H     0.1142455376   -3.8832054402    4.4765599255
     H    -1.3318686817   -4.3883993041    6.3991056416
     H    -1.7213290822    0.1551479759    2.5409612029
     H    -3.6315350609    1.5882482883    3.0832583592
     H    -5.1479908777   -2.3626493861    8.3829414914
     H    -3.2421731427   -3.8333050618    7.8319213141
     H    -6.5106579774   -0.3779319436    7.8857256658
     H    -6.9915403839    1.6108208068    6.4845592555
     H    -5.5544743492    2.1367929859    4.5310785509
     H     4.6279390346    1.5972052216   -0.0472994311
     H     8.5408737176    2.7406647693    1.5111836147
     H     8.8579785280    0.9940395079    1.6453257183
     H     9.2362075225    2.0771492008    3.0033318447
     H     6.7201059390    3.8143570683    2.8587460824
     H     7.3699999775    3.1234500721    4.3622605935
     H     5.6780091233    2.8232409324    3.9072671043
     H     7.3491023234   -0.4386505751    3.1561199567
     H     6.0142256434    0.3433443175    4.0387417992
     H     7.6926850827    0.6158803704    4.5454377717
