56
-1.3762591016457013e+03 frame 51   xyz file generated by TeraChem
     C     4.9555953506    1.4194607099   -3.3124392304
     O     4.1888169157    0.6413537291   -2.3863357696
     C     4.8889833965   -0.1403080461   -1.5695816551
     O     6.0990490502   -0.2062910215   -1.5676853083
     C     4.0094275470   -0.9585171983   -0.6229109219
     C     2.5004400091   -0.6719241962   -0.6877182917
     C     1.8194360857   -1.1601969253   -1.9440352446
     C     1.7823117332   -2.5441099679   -2.2153899280
     C     1.1517703906   -3.0721337228   -3.3398000951
     C     0.5533551331   -2.1477957297   -4.1770481490
     C     0.5610009084   -0.7711518883   -3.9408080412
     C     1.2022949128   -0.2604803457   -2.8125673449
     N    -0.1312295597   -0.1412716482   -4.9651967921
     C    -0.5131203599   -1.1097347179   -5.7432936955
     O    -0.1370848258   -2.3601003751   -5.3359012004
     C    -1.2805716362   -1.0110478579   -6.9746320772
     C    -1.6977311188    0.2455613444   -7.4298284898
     C    -2.4325340414    0.3535061192   -8.6028548880
     C    -2.7706309098   -0.7784674739   -9.3534386844
     C    -2.3484515185   -2.0305253898   -8.8877896617
     C    -1.6138853686   -2.1525143923   -7.7169154010
     C    -3.5586388758   -0.6607149435  -10.6264246698
     N     4.5300077935   -0.8194145424    0.7129142754
     C     4.9337723683   -1.8887451953    1.4458830600
     O     4.8937699155   -3.0453721259    1.0509428698
     O     5.3726168739   -1.4690813108    2.6427632080
     C     5.8267723801   -2.4162991181    3.6591823843
     C     7.0313309905   -3.2022820896    3.1548175238
     C     6.2363122621   -1.5011205455    4.8055266212
     C     4.6746445271   -3.3188644374    4.0819501920
     H     4.2259216543    1.9712833135   -3.9037671340
     H     5.5534448805    0.7664357087   -3.9524372806
     H     5.6134946699    2.1066605939   -2.7751212450
     H     4.1858250764   -2.0063696781   -0.8936117320
     H     2.0611288346   -1.1829601427    0.1775981698
     H     2.3216074237    0.3996241060   -0.5519905757
     H     2.2557680478   -3.2289378030   -1.5153590095
     H     1.1266365922   -4.1386190232   -3.5384351472
     H     1.2221837269    0.8077126101   -2.6174578357
     H    -1.4426307683    1.1320931744   -6.8570240303
     H    -2.7519317573    1.3350897449   -8.9448758106
     H    -2.6012080082   -2.9243215537   -9.4536584745
     H    -1.2976662791   -3.1330815713   -7.3744682354
     H    -3.8806863138    0.3695589907  -10.8023885824
     H    -4.4493032372   -1.2990923939  -10.6001391987
     H    -2.9611691347   -0.9810510383  -11.4885993410
     H     4.5754795909    0.0965501815    1.1381563958
     H     7.8216201527   -2.5164638628    2.8310947873
     H     6.7610105929   -3.8539159416    2.3222727671
     H     7.4250726446   -3.8169102709    3.9712169043
     H     7.0405359156   -0.8287889329    4.4896393815
     H     6.5939156787   -2.1003644181    5.6485438845
     H     5.3860929796   -0.8987035099    5.1419763681
     H     4.3618309058   -3.9745847052    3.2667429240
     H     3.8190800083   -2.7141754896    4.4014677210
     H     4.9920597101   -3.9378275782    4.9275951995
