41
-1.0099663990054157e+03 frame 64   xyz file generated by TeraChem
     C     6.6543273747   -1.2010709253    1.3626791747
     O     5.5609349981   -0.5910887449    0.6642789865
     C     5.8690009538    0.4669607860   -0.0805172052
     O     6.9799263948    0.9343552794   -0.1905454852
     C     4.6249482849    1.0089053044   -0.7618953681
     N     4.9175173475    2.0968534665   -1.6455941366
     C     5.2164367403    3.4115075549   -1.3204871334
     N     5.4979497840    4.1466112752   -2.3544291744
     C     5.4047708498    3.3057512794   -3.4673337314
     C     5.6053368464    3.6062471551   -4.7812301358
     C     5.9627554316    4.8457350167   -5.4094650521
     C     6.1859099865    6.0548560316   -4.7135440122
     C     6.5257319025    7.2166925497   -5.3730485574
     C     6.6673879089    7.2470768345   -6.7861950084
     C     6.4440937380    6.0356736428   -7.4892224608
     C     6.1045187174    4.8820557863   -6.8131242784
     N     7.0040219221    8.3932888566   -7.4376290167
     C     7.2075166273    9.6215423914   -6.6965214501
     C     7.1289818315    8.4000836870   -8.8810388830
     C     5.0357021242    1.9508703945   -3.0254875261
     O     4.8520628624    0.9088307821   -3.6453626762
     C     5.1925473434    3.8903687786    0.0829570804
     H     6.2278929321   -2.0581445602    1.8823515683
     H     7.0856529015   -0.4961681713    2.0773874950
     H     7.4221774134   -1.5234361574    0.6558720371
     H     3.8968532419    1.3038918675    0.0010621612
     H     4.1714500226    0.2096665950   -1.3571576978
     H     5.4685926190    2.7594850572   -5.4545100431
     H     6.0862490422    6.0625492223   -3.6330573202
     H     6.6855349544    8.1189156219   -4.7933999599
     H     6.5364241135    6.0059442618   -8.5689244339
     H     5.9397737955    3.9689496581   -7.3817765285
     H     6.2993277081    9.9263017177   -6.1600261729
     H     7.4741261320   10.4168043400   -7.3928384857
     H     8.0198125693    9.5209422544   -5.9653498422
     H     6.1818702641    8.1376944317   -9.3709359618
     H     7.8970178945    7.6934454274   -9.2203928075
     H     7.4171538810    9.3990293141   -9.2091219952
     H     5.9182585106    3.3420568083    0.6941089109
     H     4.2032976142    3.7447156251    0.5332994397
     H     5.4391710324    4.9532125304    0.1015226489
