69
-2.0608874509765874e+03 frame 71   xyz file generated by TeraChem
     C    -4.5251351118   -0.9603333274   -3.1968904489
     N    -3.3643230296   -1.1798547419   -2.3591122909
     C    -3.1929289333   -0.0916883916   -1.4053532726
     C    -1.9506453169   -0.3258114963   -0.5479799255
     N    -1.9548510982   -1.6040037738    0.1600401822
     C    -2.2098380647   -2.6706961421   -0.8031966088
     C    -3.4586586670   -2.4503347733   -1.6524207857
     C    -2.8390672323   -1.6414894716    1.3203384664
     C    -2.2533408091   -0.8875752764    2.5110486524
     C    -3.1318866118   -0.9558251694    3.7414743446
     O    -3.1926781524   -2.3180326582    4.1660276635
     C    -3.9170278275   -2.6216032322    5.2605028185
     C    -4.6266272471   -1.6924543816    6.0293895557
     C    -5.3336214813   -2.1307276397    7.1428789363
     C    -5.3599682089   -3.4807335657    7.5237657030
     C    -4.6394112918   -4.3989431219    6.7315615627
     C    -3.9326691977   -3.9802134153    5.6235145196
     C    -6.1166063398   -3.8622775799    8.6999508970
     C    -6.2558824345   -5.0969740003    9.2301668097
     C    -7.0648347564   -5.2949240172   10.4360473287
     O    -7.6529678474   -4.3794338995   11.0162751365
     C    -7.1534459550   -6.6760530194   10.9472125877
     N    -6.5077626248   -7.7260714370   10.3618661289
     N    -6.7717550794   -8.8100106409   11.0012320974
     N    -7.6024343877   -8.4799321914   12.0251859452
     C    -7.8728368501   -7.1530219624   12.0360815283
     C    -8.7678242790   -6.4918288415   13.0176120838
     C    -8.0586863723   -9.4848008850   12.9187318122
     C    -7.7536805444   -9.4029919402   14.2530388246
     C    -8.2264432046  -10.4212549621   15.1103594448
     N    -8.9361701845  -11.4527314985   14.7121410150
     C    -9.2444067944  -11.5389450421   13.3895564317
     C    -8.8337804077  -10.5677317945   12.4271896817
     C    -9.2263845590  -10.7214990450   11.0759348109
     C    -9.9818338849  -11.7994033991   10.6870861355
     C   -10.3679125738  -12.7610870277   11.6462700556
     C   -10.0181117742  -12.6468357035   12.9673189033
    Cl   -11.3198688749  -14.1199467824   11.1211564427
     H    -4.4151965523   -0.0154076790   -3.7407197964
     H    -5.4689221639   -0.9152273742   -2.6197364390
     H    -4.6121669010   -1.7723419810   -3.9274313517
     H    -4.0890896548    0.0178314710   -0.7615961682
     H    -3.0806104859    0.8490124491   -1.9588964096
     H    -1.8346589631    0.4933382773    0.1688252464
     H    -1.0704203882   -0.3110355877   -1.2052045893
     H    -2.2808333491   -3.6252719743   -0.2699794216
     H    -1.3433322372   -2.7269754350   -1.4770473319
     H    -4.3643236194   -2.4894089275   -1.0132325343
     H    -3.5494692362   -3.2578875459   -2.3897729343
     H    -2.9648117021   -2.6934751498    1.5999520253
     H    -3.8517138530   -1.2516358394    1.1126673718
     H    -2.1223001440    0.1742851377    2.2700555030
     H    -1.2600018485   -1.2875998063    2.7477260366
     H    -4.1463718744   -0.5964854995    3.5213367729
     H    -2.7155609253   -0.3410769661    4.5493001553
     H    -4.6334574761   -0.6394132656    5.7714820974
     H    -5.8821830751   -1.4040369131    7.7379070059
     H    -4.6339783574   -5.4544430048    6.9885528365
     H    -3.3776131741   -4.6864454528    5.0128942297
     H    -6.6305601203   -3.0496860446    9.2146203529
     H    -5.7835510420   -5.9727625646    8.7969085157
     H    -9.6481728898   -7.1087683361   13.2221508014
     H    -9.0770578925   -5.5241938044   12.6228328990
     H    -8.2472889361   -6.3216906836   13.9670084764
     H    -7.1516695696   -8.5899078937   14.6448650142
     H    -7.9894692869  -10.3699436626   16.1714489972
     H    -8.9260653366   -9.9833735823   10.3400596750
     H   -10.2855101767  -11.9179983230    9.6521958566
     H   -10.3205135826  -13.3813393597   13.7060736108
