39
-1.2566379089936220e+03 frame 57   xyz file generated by TeraChem
     N     4.5149613155   -2.6480097489    4.1593122329
     C     4.3754939624   -2.4349780743    2.7189984759
     C     5.1347248112   -1.1898527165    2.2843855393
     N     4.6353805970   -0.0347472724    3.0389380754
     S     5.0757312202    1.4807247219    2.5327677694
     O     4.6843543002    1.5801512901    1.1280392078
     O     4.4971850743    2.4180264371    3.4962841076
     C     6.8551502584    1.5939317529    2.6099270947
     C     7.5186242762    1.5973651470    1.4028939907
     C     8.9249017614    1.6010459497    1.3727643909
     C     9.6330846083    1.6299629316    2.5493390554
     C     8.9813285941    1.6739090161    3.8062104157
     C     7.5509248119    1.6117978241    3.8602366043
     C     6.9165113419    1.5385380777    5.1273533786
     C     7.6742679842    1.4979297482    6.2722327906
     C     9.0776375773    1.5941735162    6.2318512316
     C     9.7418747963    1.7237635778    5.0263242259
     N    11.1406163213    1.8593193884    4.9398806755
     C    11.8998787987    1.4135686730    6.0930043531
     C    11.6100816212    3.1680118855    4.4895050034
     H     4.3799939091   -3.6335943864    4.3674584084
     H     3.7585264956   -2.1716330860    4.6447984355
     H     3.3287331547   -2.3524809587    2.3901828485
     H     4.8173517118   -3.2866035760    2.1911984338
     H     4.9641814115   -0.9991120829    1.2215247228
     H     6.2111469326   -1.3356242501    2.4499750953
     H     4.7968271465   -0.1382221616    4.0405806263
     H     6.9482974638    1.5786896463    0.4801786909
     H     9.4414716395    1.5623249230    0.4185429167
     H    10.7170875825    1.5893243805    2.5345805030
     H     5.8359908799    1.5345565569    5.2058392892
     H     7.1803368561    1.4267272791    7.2377386112
     H     9.6307403376    1.6038542748    7.1651339366
     H    11.5783088419    0.4117036770    6.3907127377
     H    11.8069717107    2.0884290837    6.9608693929
     H    12.9580661007    1.3722819573    5.8153153819
     H    11.0166677778    3.5280602506    3.6474075203
     H    12.6539109709    3.0861246918    4.1689695381
     H    11.5523088649    3.9166464400    5.2971852106
