41
-1.3498219585422039e+03 frame 57   xyz file generated by TeraChem
     C     5.2215154360    1.8000666785    1.8547860395
     C     4.0974097676    1.3084907266    0.9514308152
     N     2.9710402969    0.7552456067    1.6972707476
     C     1.9506040918    1.5243023449    2.1359443608
     C     0.8145867447    0.9354605869    2.7868277835
     C    -0.2116233758    1.7204231607    3.2252711963
     C    -0.2130158545    3.1309775600    3.0650727552
     C     0.9228757907    3.7236190377    2.4091849385
     C     1.9646909088    2.9303762746    1.9662890550
     O     0.9929648860    5.0423541866    2.2273242951
     N    -1.2872515177    3.7935308391    3.5457779827
     N    -1.2841590975    5.0765875452    3.3966441212
     C    -2.3895892366    5.7202315687    3.9032217429
     N    -3.4102188943    5.2174349038    4.5324193726
     C    -4.3007032700    6.2110454784    4.8710852282
     C    -3.9378386587    7.5239911736    4.4823192998
     S    -2.4063099295    7.4687415658    3.6591809469
     C    -4.7492931387    8.6222162896    4.7599359573
     C    -5.9419685021    8.3972130244    5.4377226483
     C    -6.3162341713    7.1026974079    5.8305969023
     C    -5.5083749029    6.0100794550    5.5546408649
     C     3.0372584211   -0.6809620754    1.9553110185
     C     2.3396114100   -1.5112472367    0.8855731225
     H     6.0548016004    2.1701534398    1.2483816694
     H     5.5937542643    0.9871364683    2.4875203389
     H     4.8802907144    2.6119016704    2.5051218057
     H     4.4624078247    0.5129866518    0.2940319906
     H     3.7418631311    2.1071698704    0.2946068453
     H     0.7507085331   -0.1373123393    2.9167974421
     H    -1.0753170744    1.2760576260    3.7121377478
     H     2.8033188545    3.4359787390    1.5032132251
     H     0.1505714968    5.4234050328    2.6175633559
     H    -4.4602264884    9.6240507104    4.4563387558
     H    -6.5917354919    9.2375757167    5.6652370416
     H    -7.2540056206    6.9553878010    6.3591723256
     H    -5.7913531742    5.0053418445    5.8550065974
     H     2.6299874515   -0.8934388880    2.9473757638
     H     4.0988516235   -0.9436699830    2.0009919131
     H     1.2700234851   -1.2818358594    0.8398926748
     H     2.4539264937   -2.5777086039    1.1066537703
     H     2.7741971550   -1.3186320814   -0.1012364642
