44
-1.3890916514930914e+03 frame 58   xyz file generated by TeraChem
     C     5.0654325955    0.5659256436   -2.2002345508
     C     3.8761638635    0.0047629539   -1.4306146769
     N     2.7526570965    0.9339238732   -1.3666865404
     C     1.7999203100    0.9769467736   -2.3252444871
     C     0.6608809016    1.8391252175   -2.1895396781
     C    -0.2947831718    1.8767002699   -3.1629785741
     C    -0.2186782424    1.0803151155   -4.3347173685
     C     0.9190995394    0.2114285203   -4.4717111241
     C     1.8915899321    0.1753274909   -3.4894254957
     O     1.0601616538   -0.5603373818   -5.5503192046
     N    -1.2289857089    1.2147956088   -5.2222193392
     N    -1.1666686789    0.4791990637   -6.2813676893
     C    -2.2005720096    0.6621740100   -7.1714997650
     N    -3.1611255502    1.5371743254   -7.1357956026
     C    -3.9873492413    1.3850950959   -8.2257742113
     C    -3.6390506147    0.3531284970   -9.1277204761
     S    -2.2015357197   -0.4399026991   -8.5517620271
     C    -4.3933443708    0.0888443876  -10.2698590824
     C    -5.5200084820    0.8660622692  -10.5302142619
     C    -5.8662660150    1.8983905782   -9.6331767328
     C    -5.1214704755    2.1641792418   -8.4975548104
     C    -6.3616776436    0.6182826402  -11.7508036316
     C     2.7328038945    1.8154380314   -0.2025312803
     C     1.9424927917    1.2392025744    0.9653289722
     H     5.8914458829   -0.1528869558   -2.1905406276
     H     5.4166217068    1.4974106950   -1.7433496628
     H     4.8005078295    0.7732980073   -3.2420047487
     H     4.1665447046   -0.2146249690   -0.3982246695
     H     3.5395752598   -0.9424930924   -1.8609697541
     H     0.5379695244    2.4533198572   -1.3067210937
     H    -1.1602393573    2.5253488528   -3.0597628616
     H     2.7388268929   -0.4772895781   -3.6612487421
     H     0.2569662490   -0.3856630613   -6.1256898961
     H    -4.1118842333   -0.7107803468  -10.9498777059
     H    -6.7472458724    2.5000756406   -9.8444793533
     H    -5.3999281070    2.9611046836   -7.8139304131
     H    -6.0028231563   -0.2466240728  -12.3162492189
     H    -6.3524920699    1.4870967745  -12.4202779708
     H    -7.4078609068    0.4363266116  -11.4780634586
     H     2.3480568880    2.7964235381   -0.4931531450
     H     3.7752688688    1.9734583704    0.0918680996
     H     0.8909300420    1.0928583286    0.6979331097
     H     1.9892132572    1.9202814441    1.8216080101
     H     2.3557079315    0.2729187643    1.2742138299
