68
-1.5634767383058538e+03 frame 101   xyz file generated by TeraChem
     C     0.8435822373   -1.4819174765    2.1570160794
     C     0.3966072638   -0.6395199731    1.0195452414
     N     0.6465696713    0.6303548565    0.8904558994
     C     0.0637320026    1.0179898925   -0.3197063875
     C     0.0466815520    2.2500808775   -0.9007656467
     C     0.6115599293    3.4948194161   -0.4642227785
     C     0.4261768759    4.6428593744   -1.2632950101
     C     0.9366285411    5.8750192835   -0.9108678464
     C     1.6811059773    6.0344705679    0.2856987014
     C     1.8728255937    4.8813873174    1.0931106765
     C     1.3533900305    3.6578110374    0.7269238094
     N     2.1912109747    7.2435027344    0.6464402528
     C     1.9854632133    8.4010531897   -0.2003453015
     C     2.9619399534    7.3777332783    1.8660336296
     C    -0.5860514064   -0.1479803291   -0.9429148160
     O    -1.2137024752   -0.2750913914   -1.9905155904
     N    -0.3260490207   -1.1707923418   -0.0376034648
     C    -0.8172175455   -2.5176880686   -0.2010575476
     C    -2.2492496071   -2.6570455847    0.3251069347
     N    -2.7394971855   -4.0046096221    0.1643643777
     C    -3.4614254429   -4.5390184465   -0.8916873873
     N    -3.7106921179   -5.8087177000   -0.7594393378
     C    -3.1281561915   -6.1928767645    0.4519756789
     C    -3.1111419490   -7.4232440315    1.0366956132
     C    -3.6753421596   -8.6694822367    0.6035905488
     C    -3.4908728783   -9.8148129192    1.4067496470
     C    -4.0006897936  -11.0482186841    1.0577817696
     C    -4.7433021097  -11.2118115641   -0.1393942305
     C    -4.9343122519  -10.0614194314   -0.9508047746
     C    -4.4156329967   -8.8365291590   -0.5879688445
     N    -5.2523032562  -12.4222439825   -0.4970104722
     C    -5.0493662734  -13.5764024707    0.3550651136
     C    -6.0224373315  -12.5604507273   -1.7165533307
     C    -2.4791108420   -5.0249909120    1.0723110649
     O    -1.8516371046   -4.8949680125    2.1196774606
     C    -3.9084542993   -3.6998317884   -2.0315006926
     H     1.3357618614   -0.8493669725    2.8977030035
     H     1.5517247547   -2.2483410414    1.8191094088
     H     0.0010233139   -2.0009304999    2.6283442887
     H    -0.4866348660    2.2840958225   -1.8511686918
     H    -0.1401878877    4.5532287969   -2.1881046709
     H     0.7629337267    6.7234910231   -1.5627316927
     H     2.4368329961    4.9546346804    2.0161587319
     H     1.5135604056    2.7940111904    1.3641243186
     H     0.9181135191    8.6280841108   -0.3195502745
     H     2.4172102058    8.2522453379   -1.1986955638
     H     2.4689772088    9.2657431997    0.2544938807
     H     3.8605696671    6.7473853138    1.8470608560
     H     2.3705578990    7.1051977318    2.7496413750
     H     3.2762426545    8.4159024547    1.9750924251
     H    -0.1545090630   -3.2104359463    0.3234043685
     H    -0.7862848835   -2.7559279264   -1.2684104836
     H    -2.9124768076   -1.9656632929   -0.2004883134
     H    -2.2802066270   -2.4170206728    1.3920605225
     H    -2.5784674265   -7.4542322006    1.9875677183
     H    -2.9258226711   -9.7219724518    2.3320521724
     H    -3.8278832735  -11.8944628241    1.7127673015
     H    -5.4972596943  -10.1378544433   -1.8742455725
     H    -4.5752474954   -7.9748437356   -1.2281593158
     H    -3.9823827900  -13.8025177034    0.4790040329
     H    -5.5307795220  -14.4430495513   -0.0982654946
     H    -5.4847977831  -13.4239472943    1.3512977783
     H    -5.4312409388  -12.2883193294   -2.6003703648
     H    -6.9225275902  -11.9320778807   -1.6992688537
     H    -6.3342627637  -13.5995537835   -1.8238314572
     H    -3.0657768032   -3.1828997850   -2.5049116511
     H    -4.6158680011   -2.9318758739   -1.6955813939
     H    -4.4014300488   -4.3343503357   -2.7699677315
