10
-3.0113246525351258e+02 frame 8   xyz file generated by TeraChem
     C     0.2354528860   -1.1815153434   -0.0383328318
     N     1.5522910844   -0.5574795256   -0.0207207538
     C     1.3298100137    0.7031207165   -0.0051903052
     N    -0.0019267604    1.0772251169   -0.0099692134
     C    -0.7870076315   -0.0537055283   -0.0301371235
     O    -2.0023267694   -0.1019242430   -0.0391339910
     H     0.0954217480   -1.8320737351    0.8335705074
     H     0.1075827109   -1.8079433525   -0.9295713274
     H     2.1013362208    1.4675243799    0.0107154838
     H    -0.3505735203    2.0267415201    0.0017995562
