42
-1.5276514633720042e+03 frame 63   xyz file generated by TeraChem
     C    -1.2169131828    0.0683401335   -0.9837728463
     C    -0.8824092310   -1.3950371425   -0.7079545189
     C     0.5946115939   -1.6746773050   -0.9766911867
     C     1.5091478098   -0.7568092062   -0.1634627438
     C     1.1752944965    0.7167677190   -0.4376916817
     C    -0.3095823160    0.9942806326   -0.1767967902
     N     2.0868586077    1.5634388319    0.3336784858
     C     2.1240458029    2.9533113526   -0.0926539312
     C     3.1664939041    3.7164320992    0.6726202559
     C     4.3192599153    3.2576748486    1.2510250680
     C     5.0883476638    4.2878217095    1.8692060583
     C     4.5124053893    5.5199118109    1.7537718718
     S     3.0188873552    5.4309175286    0.8947173223
     N     2.9149394919   -0.9819785916   -0.4824728012
     C     3.4756758284   -2.1594319086    0.1761804039
     C     4.9461817179   -2.2885975282   -0.0779122197
     C     5.5882884561   -3.1340665962   -0.9417734168
     C     7.0036627717   -2.9653198707   -0.9574772503
     C     7.4254276061   -1.9868929261   -0.1034309215
     S     6.0981086628   -1.2687639274    0.7305111499
     H    -2.2691290270    0.2753645344   -0.7524389955
     H    -1.0831934650    0.2734223284   -2.0558860469
     H    -1.5070101917   -2.0550217798   -1.3224109317
     H    -1.1143120551   -1.6288963242    0.3412371827
     H     0.8160245974   -1.5166012728   -2.0419479678
     H     0.8263428725   -2.7242952069   -0.7573360243
     H     1.3096192273   -0.9411615929    0.9138584021
     H     1.3923664538    0.9072040444   -1.4998592818
     H    -0.5368483183    2.0429196743   -0.4035895955
     H    -0.5026367415    0.8513438719    0.8974193477
     H     1.8193406477    1.5260729588    1.3165812522
     H     1.1546851963    3.4722653666   -0.0020321698
     H     2.3725055980    2.9632037430   -1.1635861630
     H     4.6051677318    2.2114132210    1.2349172936
     H     6.0307744143    4.1162187408    2.3795573653
     H     4.8699071368    6.4730026481    2.1226041637
     H     3.4044962800   -0.1548171924   -0.1369217330
     H     2.9949821447   -3.0587969293   -0.2256226999
     H     3.2791776215   -2.1594959647    1.2646992321
     H     5.0555885489   -3.8591415454   -1.5497206805
     H     7.6783330137   -3.5480619614   -1.5762544466
     H     8.4352448409   -1.6475095591    0.0903152154
