101
-2.5551728032815863e+03 frame 132   xyz file generated by TeraChem
     C     5.6331314726    1.5732737389   -3.8499840145
     C     5.2831740349    0.4545916647   -4.1440956611
     C     4.8663220384   -0.8967833330   -4.5119711050
     N     3.6895240676   -1.3381402221   -3.7582867443
     C     2.5206682833   -0.5554064960   -4.1642486517
     C     1.3623072710   -0.7469199380   -3.2969815850
     C     0.3657225863   -0.8552001986   -2.6151568150
     C    -0.7987155440   -0.9192543965   -1.8056912882
     N    -1.8532901481   -1.6497813150   -2.1581659428
     N    -2.7897002275   -1.4492113257   -1.2049077327
     C    -2.3498587367   -0.6106272630   -0.2341077322
     C    -1.0533240536   -0.2374989742   -0.5843340519
     C    -0.3315748646    0.6544416737    0.2767216890
     O     0.8096566970    1.0788972997    0.1607188137
     N    -1.1213671953    1.0299625952    1.3791070726
     C    -2.3895584278    0.6052211279    1.6124310892
     N    -3.0592694330   -0.2194480247    0.8467121430
     N    -3.0309030773    1.0734532660    2.7390492330
     C    -2.5414927697    1.9270718496    3.7063351263
     O    -1.4145425417    2.4050038092    3.6456342716
     C    -3.4896945094    2.1787611613    4.8595140807
     C    -3.2950806373    1.0669730145    5.9017229243
     C    -3.2523569162    3.5590569959    5.4591960714
     C    -4.0724050153   -2.1289777203   -1.2218080782
     C    -4.6246006561   -2.3216084974   -2.6326173041
     C    -5.2700347997   -3.7023404124   -2.5726744793
     C    -4.3787750803   -4.4307711004   -1.5613122215
     O    -3.9749718179   -3.4157021997   -0.6301588766
     C    -3.1849431673   -5.1628956211   -2.1488199531
     O    -2.7313520820   -6.0484697519   -1.1417881158
     C    -1.4901795937   -6.7262220606   -1.3586028347
     C    -1.4960446801   -7.3625099482   -2.7488553248
     C    -0.9031920563   -6.7564262528   -3.8561154941
     C    -1.0111411715   -7.2951522767   -5.1387072893
     C    -1.7430025969   -8.4676309374   -5.3344622987
     C    -2.3677410114   -9.0769197846   -4.2377549653
     C    -2.2461958257   -8.5273926907   -2.9726738270
     O    -1.9099351891   -9.0831339430   -6.5294369087
     C    -1.3082803906   -8.4869350454   -7.6658816418
     C    -0.3194515102   -5.7639380132   -1.1126422234
     C    -0.5204854617   -4.6014394545   -0.3705312970
     C     0.5322273361   -3.7457501876   -0.0451011970
     C     1.8276569738   -4.0532838670   -0.4634435421
     C     2.0492495930   -5.2271556776   -1.1956155020
     C     0.9911091586   -6.0658217786   -1.5092841299
     O     2.9225137776   -3.2912932926   -0.2149607939
     C     2.7409089370   -2.0907835031    0.5157893957
     C    -1.4241308186   -7.7872833268   -0.2493655602
     C    -2.2248316146   -7.6781063906    0.8899002482
     C    -2.1230884087   -8.6098107940    1.9222275324
     C    -1.2171120920   -9.6632940446    1.8335154561
     C    -0.4118666469   -9.7774026593    0.7010445508
     C    -0.5151916105   -8.8480093222   -0.3301097389
     O    -6.6208795976   -3.6688426521   -2.1531316838
     C     3.4392852716   -2.7633248049   -3.9863329055
     C     4.5290070087   -3.6097090349   -3.5063630306
     C     5.4302686638   -4.3245343005   -3.1352210771
     H     5.9455283836    2.5621085209   -3.5859624916
     H     5.6830042301   -1.5938298274   -4.2908278530
     H     4.6954200820   -0.9440917867   -5.6042120773
     H     2.2288379141   -0.7741403679   -5.2092201869
     H     2.8043625480    0.5038139733   -4.1313376923
     H    -0.7235974266    1.6688478730    2.0728796918
     H    -3.9733904930    0.7147687823    2.8442969054
     H    -4.5167037815    2.1184599302    4.4773268073
     H    -2.2713864226    1.0828792399    6.2916658078
     H    -3.4909369453    0.0754555606    5.4806193737
     H    -3.9837911757    1.2269020143    6.7371968971
     H    -2.2301199323    3.6436171155    5.8403478454
     H    -3.9452929270    3.7225578764    6.2902870696
     H    -3.4086727817    4.3503043449    4.7189453457
     H    -4.7175537042   -1.5154410787   -0.5870917020
     H    -3.8030940362   -2.3172215249   -3.3541924135
     H    -5.3399248276   -1.5437580854   -2.9084031959
     H    -5.2773609352   -4.1952562827   -3.5478986975
     H    -4.9783197967   -5.1580309743   -1.0026477927
     H    -2.4033294660   -4.4503358313   -2.4453516940
     H    -3.4972274323   -5.7264303476   -3.0386536800
     H    -0.3399948535   -5.8362995917   -3.7307203126
     H    -0.5259615112   -6.7913145685   -5.9676463798
     H    -2.9446055275   -9.9830868866   -4.4009223826
     H    -2.7438209447   -9.0137589447   -2.1381799326
     H    -1.5628910288   -9.1278263721   -8.5111602437
     H    -0.2180105076   -8.4380242105   -7.5600459778
     H    -1.7014726960   -7.4784527458   -7.8405571785
     H    -1.5263476879   -4.3494326184   -0.0486207524
     H     0.3275158205   -2.8447442539    0.5231846957
     H     3.0601915182   -5.4570159915   -1.5197123853
     H     1.1931484095   -6.9676921450   -2.0805015163
     H     3.7338370591   -1.6491663189    0.6147631045
     H     2.3306596557   -2.2889180815    1.5134476389
     H     2.0844749653   -1.3910860155   -0.0145068033
     H    -2.9318746425   -6.8598256169    0.9649703657
     H    -2.7589587511   -8.5091365619    2.7984119477
     H    -1.1392350149  -10.3904199205    2.6376213396
     H     0.2976860512  -10.5965629581    0.6153692982
     H     0.1110977363   -8.9580148691   -1.2113492560
     H    -6.6492219729   -3.3128739942   -1.2516786471
     H     3.2604837933   -2.9794801847   -5.0571019276
     H     2.5189719935   -3.0289085023   -3.4518114918
     H     6.2283864456   -4.9541538670   -2.8009344450
