42
-1.5748287403807276e+03 frame 65   xyz file generated by TeraChem
    Br    -0.1363385152    1.7561629987   -2.9393070007
     C     1.5194966256    1.1107319963   -2.1312215653
     C     1.8909863297   -0.2172572699   -2.3173325195
     C     3.0731810991   -0.6648597772   -1.7430990891
     C     3.8839087218    0.1999698090   -0.9883723689
     C     3.4711655793    1.5315382549   -0.8265191271
     C     2.2905243259    1.9979547657   -1.3931786864
     C     5.1330363247   -0.2141191100   -0.3640259510
     C     5.6997882376   -1.4355851682   -0.3784998334
     C     6.9786973791   -1.6493399392    0.3205091510
     O     7.5658754114   -0.7527939744    0.9256524467
     C     7.5466923472   -3.0060335087    0.2630233466
     N     6.9386195861   -4.0394188455   -0.3877903322
     N     7.6627943541   -5.0973722901   -0.2931593874
     N     8.7661565066   -4.7657015877    0.4299028277
     C     8.7420157689   -3.4654226282    0.8036806592
     C     9.8095259258   -2.7976322731    1.5868409152
     C     9.7508075575   -5.7499966937    0.7111615300
     C    10.0230631912   -6.0902219945    2.0111455414
     C    11.0059188851   -7.0756243376    2.2521206492
     N    11.6746899640   -7.6984940169    1.3083271918
     C    11.4117743823   -7.3629308125    0.0161148581
     C    10.4502290043   -6.3749831582   -0.3541530166
     C    10.2652258248   -6.0658951609   -1.7229171490
     C    10.9901944906   -6.7172262297   -2.6893847418
     C    11.9262938606   -7.7041967416   -2.3105459778
     C    12.1442721803   -8.0287292707   -0.9961031320
    Cl    12.8253194826   -8.5164190987   -3.5598478827
     H     1.2720455491   -0.8917689927   -2.8994412998
     H     3.3635239792   -1.7010152249   -1.8896808823
     H     4.0870851125    2.2139334629   -0.2461644277
     H     1.9825117049    3.0294628519   -1.2592604948
     H     5.6674316224    0.5650168505    0.1797255182
     H     5.2563107617   -2.2859956677   -0.8868130306
     H    10.7990005218   -3.1589006697    1.2918447097
     H     9.6839269203   -2.9929454561    2.6581453101
     H     9.7446540844   -1.7207117919    1.4313331028
     H     9.4896827109   -5.6315850595    2.8370982853
     H    11.2302764149   -7.3572316188    3.2792629005
     H     9.5437132592   -5.3091843360   -2.0117185741
     H    10.8521305861   -6.4798329513   -3.7390266826
     H    12.8685324995   -8.7812066845   -0.7032005760
