47
-1.3302536894808491e+03 frame 50   xyz file generated by TeraChem
     N     2.6572264449   -0.1019850742    2.3777237045
     C     3.4744399063   -0.3446368657    1.5810093836
     C     4.5356803585   -0.5249350407    0.6654418491
     C     5.3990703433    0.5797946302    0.5492665063
     C     5.3711469478    1.8860859320    1.0814531809
     C     6.5049191854    2.5230123224    0.6270661841
     N     7.2498961947    1.6297579447   -0.0955052052
     N     6.5300238527    0.4703244353   -0.1922401947
     C     7.0729737509   -0.7224831259   -0.7286147949
     N     8.2803276004   -0.7936497040   -1.1489710118
     C     6.0871961769   -1.8023827703   -0.7424467001
     C     4.8421358184   -1.7089831857   -0.0698515813
     C     3.9256238331   -2.8222205408   -0.1431967880
     C     2.5306846774   -2.8182799667    0.4363102861
     C     1.5986005265   -3.7774747548   -0.3010487125
     C     2.2068636889   -5.1358394498   -0.4958438680
     C     3.5838955681   -5.2074365951   -0.7697575790
     C     4.3553129345   -3.9667591301   -0.7429843166
     O     5.5576322736   -4.0699000295   -1.3360003316
     C     6.4535130299   -3.0164237157   -1.4353731017
     O     7.4451656190   -3.2541479556   -2.0919144597
     C     4.1884797092   -6.4409039560   -1.0407618492
     C     3.4280424832   -7.6044467361   -1.0254651603
     C     2.0634384995   -7.5396521407   -0.7448276320
     C     1.4593901589   -6.3099604130   -0.4854667918
     C     6.9530306721    3.8977650991    0.8189159370
     C     6.0152437198    4.8910629945    1.1329265583
     C     6.4280483754    6.2043557708    1.3200511431
     C     7.7760845425    6.5394052278    1.1925493018
     C     8.7128539664    5.5549881626    0.8812002516
     C     8.3076305881    4.2380055902    0.6966727781
     H     4.6152423479    2.2871635609    1.7402010541
     H     7.7623820235    1.9125862936   -0.9276620930
     H     8.7881364072    0.0749219551   -0.9859711762
     H     2.0978048320   -1.8183138829    0.3676518219
     H     2.5670768813   -3.0723336180    1.5051449142
     H     1.3672384694   -3.3552086144   -1.2904842175
     H     0.6482433233   -3.8562255311    0.2363964315
     H     5.2521313342   -6.4824197825   -1.2531262142
     H     3.8998406509   -8.5616772985   -1.2287948904
     H     1.4673554352   -8.4482173583   -0.7294159425
     H     0.3933832917   -6.2596112853   -0.2759821097
     H     4.9624526464    4.6354046388    1.2122519570
     H     5.6951618240    6.9697783342    1.5585838110
     H     8.0959614468    7.5675834281    1.3374919214
     H     9.7644366708    5.8109747602    0.7888426477
     H     9.0461878751    3.4707047335    0.4802864428
