20
-6.8478863013976263e+02 frame 32   xyz file generated by TeraChem
     O     2.2285570902   -0.1819934582    0.1388153056
     C     0.8830142192   -0.1506209875    0.1052935279
     C     0.1013160531   -1.3125396314    0.1554648804
     C    -1.2785264703   -1.2184975677    0.1164114167
     C    -1.9168793522    0.0320379328    0.0274527952
     C    -1.1131215330    1.1897013814   -0.0208297415
     C     0.2660050035    1.1038769903    0.0170515930
     C    -3.3458344276    0.1831200411   -0.0129295729
     C    -4.4752280950   -0.6307690144   -0.0057556222
     O    -4.7659435294   -1.9084268038    0.0349604161
     C    -5.4284111464    0.5006966825   -0.0712268618
     O    -6.6304639022    0.6264964400   -0.1006885887
     C    -4.1891850540    1.4023023446   -0.0842831876
     O    -3.9818909920    2.5957092712   -0.1352571277
     H     2.5329629597   -1.1013545531    0.2052890270
     H     0.5832350868   -2.2848945619    0.2247800384
     H    -1.8553985625   -2.1375112480    0.1601152171
     H    -1.5929396513    2.1611693374   -0.0882462424
     H     0.8843480233    1.9957032571   -0.0199095504
     H    -3.9720143400   -2.4686253198    0.0623422940
