87
-2.3958763484633173e+03 frame 175   xyz file generated by TeraChem
     C    -4.4244312380    3.2210030381   -1.6749371892
     C    -3.1145319089    2.4684950568   -1.5994186003
     C    -2.1497478631    2.9342758718   -0.7799993999
     C    -0.7646544119    2.4488851607   -0.3950494514
     C    -1.5766663988   -0.4858919145   -1.5833039176
     C    -2.4173623433    0.1733734793   -2.5681901867
     C    -3.0595170590    1.3560788022   -2.5513655167
     C    -0.8187109012   -1.7596169697   -1.8547065145
     C    -0.0386877922   -0.5674487918   -1.3985165574
     C    -0.9370141135   -0.2010543738   -0.2722316909
     O    -1.1099598737   -1.1487669599    0.7837418422
     C    -1.1173032321   -2.4716957546    0.4616044423
     C    -0.9601444713   -2.8719289508   -0.8768977513
     C    -0.9379416204   -4.2383668391   -1.1833826067
     C    -0.6769861363   -4.7526110418   -2.5490464044
     C    -0.3600573459   -6.0649398762   -2.8155882372
     O    -0.0053226923   -6.4432820487   -4.0547045215
     C     0.6057583773   -7.7274484557   -4.1936337193
     C     0.4060345835   -8.1884962818   -5.6215562844
     C     1.0963039530   -9.5172574785   -5.8957401767
     N     0.8671159261   -9.9282762216   -7.2753689342
     C     1.5691361017  -11.1444897421   -7.6503483981
     C     0.7944469751  -12.3875720287   -7.2271261000
     N     1.5192542361  -13.5740977587   -7.6295547726
     C     1.0610371485  -14.8318805382   -7.4335520398
     C    -0.2063923337  -15.0896075259   -6.9119287472
     C    -0.6262571294  -16.4136753685   -6.7390936997
     N     0.0802802230  -17.4926330121   -7.0254560559
     C     1.3199820938  -17.2722487969   -7.5469384230
     C     1.8657258214  -15.9766887866   -7.7841157393
     C     3.1536643930  -15.8745401027   -8.3571408719
     C     3.8938855707  -16.9912398010   -8.6711695136
     C     3.3467723203  -18.2620210368   -8.4144339592
     C     2.0961088623  -18.4131783526   -7.8712234576
    Cl     4.2929574749  -19.6749158783   -8.8106368052
     C    -0.2249308078   -6.8269737531   -1.5570140849
     C    -1.3151933525   -6.4599798966   -0.8255423171
     C    -1.1643575974   -5.1753647834   -0.1100147075
     C    -1.3361045522   -4.7491991280    1.1914772568
     C    -1.2869792265   -3.3846276307    1.4931558982
     C    -0.8267771921    1.1347925545    0.4084760063
     C     0.4012940918    2.6432036449   -1.4528473402
     C     1.4401591247    1.4889687828   -1.4312000119
     C     0.9913577653    0.2079442620   -2.0917602476
     O     1.4505688433   -0.1773180060   -3.1588659318
     C    -0.0716376106    2.8417398002   -2.8967297922
     C     1.1606393015    3.9163857451   -1.0450137213
     H    -4.4394039294    4.0801936423   -0.9982763229
     H    -5.2666435214    2.5665391096   -1.4160821433
     H    -4.6102550533    3.5823946180   -2.6949096181
     H    -2.4392764576    3.8299166706   -0.2297006927
     H    -0.4887050301    3.1472964293    0.4026453392
     H    -2.5628923613   -0.4339153952   -3.4603991190
     H    -3.6846331758    1.5303160511   -3.4284523535
     H    -0.7209761931   -2.0164959547   -2.9064926951
     H    -0.5878775068   -4.0356391740   -3.3620158765
     H     0.1494962220   -8.4197714237   -3.4738917400
     H     1.6727855728   -7.6408603791   -3.9510337927
     H     0.8040848557   -7.4228731712   -6.3012466151
     H    -0.6664160275   -8.2819042324   -5.8292871428
     H     0.6887065501  -10.2849364499   -5.2257475898
     H     2.1740684027   -9.4346229171   -5.6594980690
     H     1.1900823943   -9.1789160959   -7.8821775439
     H     2.5897345751  -11.1923907333   -7.2246341974
     H     1.6747226513  -11.1589250198   -8.7409562887
     H    -0.1900159140  -12.3733486594   -7.7103568145
     H     0.6246380938  -12.3868390195   -6.1398065978
     H     2.5065149938  -13.4525957963   -7.8015860567
     H    -0.8689766842  -14.2811316640   -6.6251349835
     H    -1.6190357806  -16.5892514245   -6.3238555584
     H     3.5858357879  -14.9034665414   -8.5804074161
     H     4.8799631069  -16.8994761247   -9.1140667263
     H     1.6721235313  -19.3937896516   -7.6815868488
     H     0.7649642629   -6.7544235867   -1.0956809102
     H    -2.2681177216   -6.5093733966   -1.3649418175
     H    -1.5056091382   -5.4743945035    1.9823200890
     H    -1.3992404392   -3.0250529820    2.5114151243
     H     0.0636100176    1.0644728988    1.0460364098
     H    -1.6737680036    1.2166577279    1.0984388277
     H     1.7412594503    1.2774094863   -0.3976463544
     H     2.3301362651    1.8233279921   -1.9754053207
     H    -0.6344458058    1.9885283736   -3.2820531591
     H     0.8022788681    2.9854825580   -3.5433595859
     H    -0.7055474682    3.7297059148   -2.9824351903
     H     1.6124546709    3.8074340482   -0.0517032643
     H     0.4779813251    4.7740231081   -1.0171028756
     H     1.9589144088    4.1400733490   -1.7621483238
