55
-1.6909216757859981e+03 frame 87   xyz file generated by TeraChem
     O    -0.3103237194   -1.6712877468    6.1762664299
     C    -0.0893794030   -0.5561983133    5.4699111174
     O    -0.8955108595   -0.2090712236    4.6331422109
     C     1.1516422138    0.2183854973    5.7376971025
     C     1.2276613766    1.5142187655    5.2133030342
     C     2.3350394815    2.2996720477    5.4263198300
     N     2.1944453110    3.6923904186    5.0135577911
     O     1.8435363245    3.9083002661    3.8637142394
     O     2.3682626950    4.5432360823    5.8660272462
     C     3.5025236587    1.8341027663    6.0946941623
     C     3.3880878588    0.5070377732    6.6182137291
     C     2.2413739147   -0.2616248129    6.4461255280
     N     4.4746089833   -0.1279672880    7.3208332758
     O     5.4991738618    0.5238028749    7.5405499716
     O     4.3429777048   -1.2877609618    7.6803987748
     N     4.6340262245    2.5514843397    6.2044976869
     O     4.8593182656    3.5217316690    5.2513890099
     C     5.8459052309    4.5105323950    5.6965530584
     C     7.1733980276    3.7800845992    5.9287931259
     C     7.5078947855    2.7027265260    5.0979529427
     C     8.7274925260    2.0480551438    5.2412674323
     C     9.6424782018    2.4732897520    6.2029044881
     C     9.3274918589    3.5573369620    7.0178289057
     C     8.0999805332    4.2045684085    6.8851293846
     C     5.9969704365    5.4213857962    4.4749425678
     C     5.0754057756    5.4107101381    3.4250530782
     C     5.2348761705    6.2693854855    2.3374605001
     C     6.3065771041    7.1547601802    2.2883052453
     C     7.2246836639    7.1761296105    3.3376725519
     C     7.0735923355    6.3135608661    4.4182648209
     C     5.3182659204    5.2531439509    6.9233084744
     C     5.3427965128    4.6495294212    8.1885868958
     C     4.8059155207    5.2968287405    9.2980275020
     C     4.2423963093    6.5643159433    9.1664326566
     C     4.2191251042    7.1768902901    7.9164193022
     C     4.7497999398    6.5254558480    6.8056355646
     H     0.3280038296   -1.7855530237    6.8988527040
     H     0.3823050419    1.9208167103    4.6676523450
     H     2.2697941314   -1.2629857189    6.8631520213
     H     5.4691166592    2.0300115324    6.4744812063
     H     6.8063842177    2.3786125508    4.3338616235
     H     8.9645379633    1.2075769559    4.5944672349
     H    10.5961596020    1.9643263141    6.3135194078
     H    10.0356872821    3.9022116135    7.7664438781
     H     7.8665963059    5.0465823810    7.5292874656
     H     4.2289235369    4.7348698654    3.4439251507
     H     4.5103002393    6.2422639838    1.5278052133
     H     6.4274058455    7.8240143795    1.4406913410
     H     8.0667034991    7.8627978097    3.3138229250
     H     7.8013243523    6.3348646785    5.2246327204
     H     5.7949082164    3.6716496790    8.3192423734
     H     4.8358453612    4.8095737977   10.2689417296
     H     3.8300492467    7.0726257608   10.0340884862
     H     3.7860105792    8.1668652024    7.8004335556
     H     4.7190615631    7.0168348199    5.8387055144
