24
-4.7968780719686401e+02 frame 39   xyz file generated by TeraChem
     O     2.4155356184    0.4271923095    1.1416122600
     C     2.3771121082    0.1215214165   -0.1536848079
     O     1.9671586086   -0.9567753457   -0.5124002004
     C     2.9074426704    1.2034696657   -1.0782231900
     C     2.2560275023    2.5890358112   -0.9568921344
     C     2.5175143474    3.2551504547   -2.3248998820
     C     3.2291890892    2.1940238632   -3.1605993811
     N     2.8185084596    0.8741352851   -2.5501735877
     C     3.7513287962   -0.2166160476   -2.9506397361
     C     1.4283372122    0.5373730295   -2.9954087938
     H     2.8038518899    1.3025438380    1.3154960591
     H     3.9827655088    1.2944823353   -0.8775890445
     H     2.7124980569    3.1461000727   -0.1354222880
     H     1.1863373470    2.5023958283   -0.7473981787
     H     3.1530177243    4.1378547148   -2.2313509270
     H     1.5798654818    3.5675166872   -2.7905023178
     H     4.3148687981    2.2559024372   -3.0542000654
     H     2.9702014228    2.1812888081   -4.2204503558
     H     4.7565184581    0.0432665674   -2.6145217915
     H     3.7273867284   -0.2992995377   -4.0382266761
     H     3.4195372990   -1.1458209618   -2.4894841345
     H     0.7495917379    1.3383298359   -2.7030623508
     H     1.1279591552   -0.4010976402   -2.5358489906
     H     1.4498057485    0.4465379453   -4.0819388298
