26
-7.0540399833871629e+02 frame 40   xyz file generated by TeraChem
     O    -1.0929124324    1.8635148221    0.0220809146
     C    -0.9143909265    0.6633053813    0.0413909714
     C     0.1000686868   -0.2426611663    0.5987961304
     C    -0.5138363916   -1.4074915509    0.1385386246
     C    -1.6125560133   -0.5965925217   -0.4663185475
     O    -2.6393888952   -0.8177181174   -1.0724746196
     C    -0.2479723982   -2.8076615255    0.1923330264
     C    -0.7251679392   -3.8042126177   -0.7386165377
     C    -1.5316795584   -3.6061492422   -1.9811385445
     C    -0.2192933081   -4.9984745956   -0.3068197317
     N     0.5248347305   -4.7928408746    0.8353627240
     C     0.5289301936   -3.4766142205    1.1565762014
     C     1.2035295646   -3.0025928577    2.3948196341
     C     1.1714864789   -5.8395329595    1.5995301266
     O     1.2100488675   -0.0290024834    1.2727916952
     H    -1.0084008866   -2.9664052281   -2.7027662410
     H    -2.4889632751   -3.1215308195   -1.7709926000
     H    -1.7226725991   -4.5687753810   -2.4657243552
     H    -0.3130596925   -5.9909716452   -0.7270387079
     H     0.7760166612   -3.4842063153    3.2836712491
     H     1.1032685093   -1.9244789723    2.5120126056
     H     2.2740894980   -3.2434738342    2.3811337039
     H     1.0292613449   -6.7882296075    1.0806705008
     H     0.7367697997   -5.9123280521    2.6013579406
     H     2.2432147208   -5.6410526106    1.6915088952
     H     1.3196747078    0.9279775908    1.4215347995
