37
-1.0283719983421790e+03 frame 73   xyz file generated by TeraChem
     O     1.1083826813    0.4568520175    0.7046613743
     C     2.2989874048    0.3480090141    0.4273406848
     C     3.0990827632   -0.8326115875    0.8956730624
     C     2.3689931373   -1.8313568384    1.5098603414
     C     2.9551822345   -3.0186850544    1.9941461594
     C     2.1889021218   -4.0401010723    2.6127897960
     C     2.7934276700   -5.1861747614    3.0687678505
     C     4.1916584130   -5.3554099628    2.9248696337
     C     4.9610384315   -4.3835344519    2.3303039095
     C     4.3645370340   -3.1903193525    1.8482553672
     C     5.1142519720   -2.1650488676    1.2290257389
     C     4.5109876992   -1.0189180751    0.7628931023
     O     5.2339323179   -0.0303343187    0.1744596928
     N     2.9563681502    1.2678793833   -0.3381502465
     N     2.2965428165    2.3518775693   -0.8097849930
     C     2.9806480870    3.1513322535   -1.5474028726
     C     2.3873110307    4.3596120725   -2.1065384774
     C     1.0629497461    4.7361443805   -1.8341695698
     C     0.5156098223    5.8915279637   -2.3712171161
     C     1.2962772726    6.7000568541   -3.2014784327
     C     2.6100514840    6.3509138079   -3.4884568232
     C     3.1600215165    5.1866743962   -2.9464025324
     O     4.4357351946    4.8097931913   -3.2035841140
     H     1.2980598487   -1.6815435306    1.6127237081
     H     1.1158583253   -3.8971513309    2.7171263078
     H     2.2030165903   -5.9664411725    3.5409816898
     H     4.6591786578   -6.2663005990    3.2897598587
     H     6.0346005308   -4.5170315038    2.2208640167
     H     6.1907385959   -2.2831440706    1.1196474479
     H     6.1657648830   -0.2939063186    0.1068201846
     H     3.9473113291    1.1385741151   -0.5403879300
     H     4.0306158013    2.9545755148   -1.7820036719
     H     0.4719160471    4.0971623228   -1.1845778229
     H    -0.5110420139    6.1650049083   -2.1462273498
     H     0.8809593822    7.6087948175   -3.6289034914
     H     3.2222302486    6.9757496958   -4.1353352863
     H     4.8568200657    5.4694240225   -3.7765606590
