35
-9.5605241928385340e+02 frame 34   xyz file generated by TeraChem
     O     1.0885470860   -0.6617331656    0.4331692414
     C     2.2544532341   -0.3536442292    0.1987606151
     C     2.5440872383    0.8913950779   -0.5725947312
     C     1.6259820414    1.9466845475   -0.4895676431
     C     1.8179261764    3.1063090728   -1.2298244299
     C     2.9172164209    3.2141613271   -2.0835340143
     C     3.8228443934    2.1605491677   -2.1905084179
     C     3.6430553210    1.0057095797   -1.4332691455
     C     3.3632655017   -1.2149486343    0.6771831086
     C     3.0953508827   -2.5739856888    0.9163368950
     C     4.0725151168   -3.4151393090    1.4088815703
     C     5.3472409498   -2.9085973390    1.7085905156
     C     5.6265681858   -1.5542133796    1.4996831982
     C     4.6375761455   -0.7241353787    0.9803465850
     O     6.2336906899   -3.8076200655    2.1870600817
     C     7.5167786659   -3.3423442168    2.6002460014
     C     8.2264600369   -4.4977266258    3.2352693012
     C     9.3960026598   -4.9589997685    2.7826260502
     C     7.5913156354   -5.0136773313    4.4853528077
     O     6.8898125116   -4.3204149979    5.1906758859
     O     7.8324690817   -6.2848378977    4.8320185725
     H     0.7669902939    1.8428969575    0.1670212030
     H     1.1095936930    3.9262938261   -1.1476892264
     H     3.0638950345    4.1182020104   -2.6687442283
     H     4.6701498707    2.2359031595   -2.8665375180
     H     4.3423502336    0.1807798268   -1.5324743941
     H     2.1041255862   -2.9599561689    0.6976825723
     H     3.8760398189   -4.4695422641    1.5797505658
     H     6.6005480273   -1.1393704230    1.7342502396
     H     4.8635528727    0.3284382959    0.8376438183
     H     7.3965385927   -2.5339331831    3.3319191067
     H     8.0826346679   -2.9666600498    1.7405002850
     H     9.8584804155   -4.5304556819    1.8975875089
     H     9.9522097756   -5.7459191501    3.2869151387
     H     8.3041168931   -6.7535086942    4.1237243953
