26
-7.4331429101152321e+02 frame 16   xyz file generated by TeraChem
     N     0.9844179967   -0.0219093135    0.0217820899
     C     2.3452301401    0.0006040497   -0.0336209277
     C     3.0505598761    1.2247389070   -0.0513821986
     C     4.4307197726    1.2398797437   -0.0617412634
     C     5.1721609754    0.0506401808   -0.0545515155
     C     4.4727933217   -1.1731277044   -0.0350670631
     C     3.0867877276   -1.1964522928   -0.0251397427
     C     5.2034442192   -2.4686162930   -0.0260582453
     O     4.6068350397   -3.5378791201    0.0013751835
     C     6.6869612408   -2.4186188413   -0.0486552368
     C     7.3716186945   -1.1913149771   -0.0689431930
     C     6.6371035347    0.1047000996   -0.0725942785
     O     7.2503777814    1.1703255814   -0.0930351005
     C     8.7664987316   -1.1808469746   -0.0874485115
     C     9.4774586192   -2.3764351758   -0.0868904598
     C     8.7971100670   -3.5953865983   -0.0677378637
     C     7.4070818775   -3.6148895897   -0.0481632940
     H     0.4835747462    0.8165099143   -0.2378865882
     H     0.5134662060   -0.8834426469   -0.2168734000
     H     2.4919666202    2.1574352552   -0.0585848909
     H     4.9659609163    2.1847930773   -0.0788858843
     H     2.5757825664   -2.1551406978   -0.0119283184
     H     9.2784158480   -0.2236152110   -0.1021496119
     H    10.5637318519   -2.3605966718   -0.1016233364
     H     9.3524113033   -4.5290908238   -0.0677688154
     H     6.8613506424   -4.5533738606   -0.0324675415
