51
-1.6339972600493520e+03 frame 63   xyz file generated by TeraChem
     N    -6.4506865781    1.5564076472    7.0621578552
     N    -5.3166563765    1.3367522470    7.8561664635
     C    -4.3187656206    0.7605438696    7.3106591531
     C    -4.1997800923    0.3313671412    5.8677797582
     C    -3.7197692359    1.5195710167    5.0565143403
     C    -2.3639182649    1.9395164193    5.0889582516
     C    -1.9768306903    3.0379556283    4.3637655108
     C    -2.9301939562    3.7476991684    3.5926610067
     C    -4.2586951925    3.2522660525    3.6362224601
     N    -4.6334867939    2.1644283522    4.3553433236
     C    -5.2836401252    3.9057630975    2.8922335434
     O    -6.5356299980    3.4112732661    2.9488850504
     C    -4.9776861793    5.0163608840    2.1354030215
     C    -3.6517110663    5.5002444520    2.1019005817
     C    -2.6396650809    4.8896184405    2.8089596006
     C    -3.3456361266   -0.9288042494    5.6727373947
     C    -3.9094042417   -2.1729269990    6.3619063214
     C    -5.2225186358   -2.6699315385    5.7619183783
     C    -5.8094478778   -3.8736996379    6.4828378656
     S    -4.7463975314   -5.3643871667    6.4114201164
     C    -6.1311671402   -6.3637578334    7.0357093172
     C    -7.4172017039   -5.8083370451    6.3984448200
     C    -7.1669976622   -4.3392675083    5.9341155519
     N    -7.1998187426   -4.4471167136    4.4898536375
     C    -7.6458512271   -5.6745907596    4.0592101399
     O    -7.8681544956   -5.9979783660    2.8977444920
     N    -7.8013434044   -6.4578026537    5.1675062811
     O    -3.2139497430    0.5207443731    8.0555795163
     H    -7.0274889627    2.2204702789    7.5688044980
     H    -6.2052318157    1.9939259550    6.1723753449
     H    -5.2199278424    0.1314372327    5.5219902668
     H    -1.6456370813    1.3930882922    5.6913507274
     H    -0.9428039217    3.3745915113    4.3760652484
     H    -6.4823845507    2.6275985000    3.5342037074
     H    -5.7617402297    5.5099634674    1.5688422780
     H    -3.4343961296    6.3771907919    1.4979535446
     H    -1.6222968357    5.2695786658    2.7750627894
     H    -2.3300294219   -0.7471421302    6.0383708881
     H    -3.2644486426   -1.1152231228    4.5938229369
     H    -4.0433097312   -1.9740790062    7.4335466002
     H    -3.1571198621   -2.9692908908    6.2905117034
     H    -5.0765295944   -2.9171154746    4.7026085418
     H    -5.9804617688   -1.8751316661    5.8003627146
     H    -5.9492192762   -3.6280551205    7.5444043632
     H    -6.1836693505   -6.2723535550    8.1255677239
     H    -5.9740407768   -7.4155222382    6.7827372572
     H    -8.2290910866   -5.8635698196    7.1319039551
     H    -7.9510681024   -3.6615640459    6.2947138651
     H    -7.4102108828   -3.6415766597    3.9181795490
     H    -7.8707996646   -7.4609888693    5.0810428615
     H    -3.3917228365    0.8679860250    8.9478073066
