43
-1.6544086434379424e+03 frame 48   xyz file generated by TeraChem
     N    -0.6742417815    1.7829728472   -4.8115906642
     C     0.2375638368    1.4547281486   -4.1695372051
     C     1.3575467517    1.0526361424   -3.3783642076
     C     1.6827154620   -0.3090859039   -3.2700561299
     C     2.7656450170   -0.6964146892   -2.5006755499
     C     3.5456084827    0.2584725697   -1.8242849132
     C     3.2065990973    1.6159556946   -1.9471233574
     C     2.1243462764    2.0185980977   -2.7142419424
     C     4.6917541644   -0.0948112298   -0.9944692148
     C     5.1598517147   -1.3298366484   -0.7378541432
     C     6.3343281294   -1.5023734307    0.1385748722
     O     6.9208330018   -0.5553059185    0.6596829181
     C     6.7811886668   -2.8835232068    0.3728275891
     N     6.1496339168   -3.9678490114   -0.1629517296
     N     6.7531440595   -5.0429132238    0.1990540568
     N     7.8006127809   -4.6718539664    0.9843865721
     C     7.8627904361   -3.3276406497    1.1251676164
     C     8.9004551755   -2.6114454811    1.9059146819
     C     8.6390165296   -5.6629115464    1.5605024073
     C     8.7373711306   -5.7589738874    2.9248322495
     C     9.5763060300   -6.7580444183    3.4657983914
     N    10.2669610399   -7.6120501847    2.7451814944
     C    10.1760810918   -7.5198943458    1.3905718324
     C     9.3704678696   -6.5472216184    0.7252920174
     C     9.3613750155   -6.5054350682   -0.6895921046
     C    10.1080739364   -7.3973944542   -1.4184458275
     C    10.8883626685   -8.3643804712   -0.7479220747
     C    10.9332531917   -8.4356346914    0.6207234600
    Cl    11.8174730788   -9.4853844277   -1.7010722750
     H     1.0838503511   -1.0509464935   -3.7888313358
     H     3.0059901174   -1.7522542037   -2.4256341090
     H     3.8036272802    2.3620999549   -1.4296745414
     H     1.8697861821    3.0700453191   -2.8017896486
     H     5.2176790359    0.7403163315   -0.5321881924
     H     4.7066469412   -2.2271986610   -1.1468574053
     H     9.8738911594   -3.1012411910    1.8106836761
     H     8.6367074133   -2.5868619663    2.9696966403
     H     8.9667790022   -1.5822093123    1.5529857547
     H     8.1752162149   -5.0997000724    3.5776825722
     H     9.6614494261   -6.8474386284    4.5471885243
     H     8.7591995630   -5.7642316224   -1.2040657576
     H    10.1049386351   -7.3647959939   -2.5029934555
     H    11.5371266003   -9.1731432403    1.1383679307
