42
-1.6614116068870940e+03 frame 66   xyz file generated by TeraChem
     F     0.9608889100   -0.7833026776   -3.4047115354
     C    -0.1730336776   -0.5032724442   -2.7442390067
     C    -0.6467459526    0.8041261979   -2.7663151901
     C    -1.8227206316    1.0976298722   -2.0952339533
     C    -2.5298964186    0.0978118427   -1.4022480573
     C    -2.0104011792   -1.2077496096   -1.4009342653
     C    -0.8326702844   -1.5194521614   -2.0694454202
     C    -3.7775184660    0.3544813413   -0.6975876791
     C    -4.4424758304    1.5239424624   -0.6145908063
     C    -5.7091258959    1.6098767114    0.1252900454
     O    -6.2168887359    0.6527655192    0.7107280426
     C    -6.3752225961    2.9241593822    0.1261481844
     N    -5.8600933179    4.0157237421   -0.5101926728
     N    -6.6561198021    5.0154238013   -0.3711227572
     N    -7.7142498456    4.5867134906    0.3675521180
     C    -7.5867504908    3.2824624197    0.7060301488
     C    -8.5844109305    2.5221724051    1.4978896781
     C    -8.7597962711    5.4902680421    0.6942969752
     C    -9.0285087365    5.7767131078    2.0078859378
     C   -10.0710124512    6.6858425089    2.2938344127
     N   -10.7995302618    7.2860739614    1.3799476375
     C   -10.5411601029    7.0023202922    0.0744137327
     C    -9.5228602995    6.0919406578   -0.3402740858
     C    -9.3469640205    5.8296270009   -1.7200464087
     C   -10.1351088399    6.4532804982   -2.6548118476
     C   -11.1268828176    7.3651663889   -2.2320850730
     C   -11.3379914362    7.6417866995   -0.9056154008
    Cl   -12.1049564489    8.1453609245   -3.4417335734
     H    -0.0944896768    1.5673185804   -3.3055236437
     H    -2.1942235472    2.1177791119   -2.1132375642
     H    -2.5444159506   -1.9908333987   -0.8684241364
     H    -0.4286211712   -2.5267462108   -2.0745709827
     H    -4.2203750655   -0.5027734391   -0.1901041086
     H    -4.0845772893    2.4316501609   -1.0895183278
     H    -9.6044845533    2.8149254463    1.2320966615
     H    -8.4491282592    2.7061981882    2.5700410803
     H    -8.4457318140    1.4557843591    1.3193080722
     H    -8.4482324211    5.3347428951    2.8109469733
     H   -10.2929617754    6.9247976687    3.3322470306
     H    -8.5826218133    5.1308296096   -2.0426398429
     H   -10.0043451367    6.2511162350   -3.7127314728
     H   -12.1047100955    8.3362915530   -0.5793606620
