44
-1.7665679235130619e+03 frame 43   xyz file generated by TeraChem
    Cl     3.3269012497   -0.0342989119    0.6260295226
     C     1.6468029571   -0.4760648305    0.5238349470
     C     1.3127918994   -1.8476003942    0.4883330587
     C    -0.0057985288   -2.2211308482    0.4113109146
     C    -1.0285948848   -1.2437341258    0.3659404755
     C    -0.6764524762    0.1394033982    0.3891494358
     C     0.6889167772    0.5038987764    0.4751318007
     N    -1.5931802672    1.1428308810    0.3222296517
     C    -2.8609194722    0.8107302411    0.2292789773
     C    -3.3330470159   -0.5202517294    0.2050074266
     C    -2.4145588624   -1.5357228022    0.2761088289
     N    -2.8547522364   -2.8860765186    0.2517036607
     N    -2.6121076914   -3.7003530876    1.3140179072
     N    -3.1233485695   -4.8469122054    1.0381507895
     C    -3.7037295007   -4.8065584500   -0.1959990096
     C    -3.5361320679   -3.5309999890   -0.7226475878
     C    -3.9318550424   -2.9161537244   -2.0131034203
     C    -4.3623579312   -5.9698095312   -0.8089693044
     O    -4.8836223622   -5.8823460157   -1.9194267859
     C    -4.3506025125   -7.2197627718   -0.0265208583
     C    -4.9342381015   -8.3267926328   -0.5188250982
     C    -5.0056556288   -9.6393147915    0.1160853329
     C    -5.6773208488  -10.6782922142   -0.5491389533
     C    -5.7736098858  -11.9513795490    0.0054776454
     C    -5.1994340867  -12.2191098288    1.2412122183
     C    -4.5358147027  -11.1829810422    1.8949844359
     C    -4.4264578401   -9.9083903272    1.3632358697
     N    -3.9278261952  -11.4509382571    3.1956224685
     O    -4.0100452770  -12.5850466868    3.6436223730
     O    -3.3680549005  -10.5287979488    3.7703866085
     H     2.0987428643   -2.5949355438    0.5205219184
     H    -0.2648272809   -3.2742260610    0.3869205694
     H     0.9443000856    1.5578922855    0.4960570136
     H    -3.5789839568    1.6269573895    0.1767457286
     H    -4.3965627030   -0.7264152883    0.1469840365
     H    -4.0957036894   -3.7014479672   -2.7512575581
     H    -3.1631870902   -2.2245320008   -2.3698358831
     H    -4.8670331190   -2.3549271014   -1.9030644399
     H    -3.8581467995   -7.1987602746    0.9406301401
     H    -5.4075728678   -8.2477697958   -1.4971579514
     H    -6.1286253604  -10.4783371558   -1.5176087289
     H    -6.2977155262  -12.7384469412   -0.5275401412
     H    -5.2583178064  -13.2007873734    1.6960666000
     H    -3.8933693453   -9.1461685922    1.9193124415
