45
-1.7506105974189163e+03 frame 41   xyz file generated by TeraChem
    Cl     3.1452564771    0.2076000593    0.6592477697
     C     1.4752679906   -0.2737313221    0.5681908310
     C     1.1724383749   -1.6528846858    0.5541069704
     C    -0.1374993846   -2.0567949482    0.4859185047
     C    -1.1821817547   -1.1035330117    0.4283436669
     C    -0.8616664133    0.2873886828    0.4295228259
     C     0.4953522609    0.6836053937    0.5069926421
     N    -1.8018123439    1.2680245177    0.3490363973
     C    -3.0614733329    0.9044239619    0.2634197474
     C    -3.5028690108   -0.4374494167    0.2604575115
     C    -2.5611032952   -1.4301260331    0.3461870991
     N    -2.9653972511   -2.7914715969    0.3424569576
     N    -2.7011497049   -3.5817663417    1.4161855091
     N    -3.1648490402   -4.7514100342    1.1497957914
     C    -3.7342841258   -4.7503351278   -0.0900975485
     C    -3.6125675103   -3.4755837184   -0.6299630258
     C    -4.0172397543   -2.8908216465   -1.9319608941
     C    -4.3253592890   -5.9543648371   -0.7029440528
     O    -4.8354697487   -5.8933762142   -1.8235973211
     C    -4.2472469270   -7.1904989102    0.0816163397
     C    -4.7130527921   -8.3507786769   -0.4283399869
     C    -4.6935095152   -9.6613808498    0.1942284056
     C    -5.1999337476  -10.7483304829   -0.5350442828
     C    -5.2103474368  -12.0520383542   -0.0260564532
     C    -4.6992245762  -12.2209820653    1.2432353902
     C    -4.1951539237  -11.1492100529    1.9848166579
     C    -4.1731737885   -9.8685815156    1.4977276835
     O    -3.7324559102  -11.6085609878    3.1821103619
     C    -4.1356024322  -12.9732753656    3.2582872596
     O    -4.5647325928  -13.3682235708    1.9536380245
     H     1.9752269468   -2.3816401204    0.5954389146
     H    -0.3738618039   -3.1154098226    0.4781732366
     H     0.7276344344    1.7431551001    0.5112294837
     H    -3.7985713815    1.7026931697    0.1993343364
     H    -4.5615409457   -0.6685486305    0.2070001969
     H    -4.1740083563   -3.6940262291   -2.6519296701
     H    -3.2557588153   -2.1996784060   -2.3054084009
     H    -4.9570830469   -2.3355248689   -1.8324410798
     H    -3.7920454699   -7.1287640469    1.0650496079
     H    -5.1467239842   -8.3079418511   -1.4276329014
     H    -5.5969922316  -10.5697189625   -1.5306173016
     H    -5.5977768097  -12.8874985060   -0.5993398929
     H    -3.7698504438   -9.0536687172    2.0890048429
     H    -4.9732489356  -13.0719336078    3.9590343694
     H    -3.2860913050  -13.5885673808    3.5602439786
