65
-2.0414743404130022e+03 frame 59   xyz file generated by TeraChem
    Cl    -0.0460030560    1.9622254469    3.3347792805
     C    -1.1934112783    1.0639713871    2.3831858237
     C    -1.2754616570   -0.3329965767    2.5711654195
     C    -2.1766871634   -1.0629581179    1.8367626927
     C    -3.0202069592   -0.4268955139    0.8952068767
     C    -2.9145537020    0.9834217186    0.7022972902
     C    -1.9838837199    1.7198664646    1.4745784276
     N    -3.6637032858    1.6691576083   -0.2033200467
     C    -4.5224301641    0.9897106010   -0.9294422910
     C    -4.7267927025   -0.4036359857   -0.8210896722
     C    -3.9770547392   -1.1005934184    0.0916362519
     N    -4.1592848385   -2.5015740738    0.2316601752
     N    -4.5476161265   -3.0168476711    1.4285215302
     N    -4.6565906216   -4.2891069157    1.2776281678
     C    -4.3466958891   -4.6290077973   -0.0066711940
     C    -4.0205283064   -3.4714718412   -0.7031840204
     C    -3.5927195625   -3.2333542632   -2.1037008141
     C    -4.3533054923   -6.0206310313   -0.4952389732
     O    -4.0704697085   -6.2637723633   -1.6704962364
     C    -4.6989057887   -7.0567842043    0.4816894161
     C    -4.6924483234   -8.3579261339    0.1187546602
     C    -4.9955061719   -9.5140911694    0.9399265477
     C    -5.4044147064   -9.4260322109    2.2810100644
     C    -5.6789929826  -10.5585894127    3.0334072120
     C    -5.5431646312  -11.8284273374    2.4520185925
     C    -5.1401450926  -11.9374598701    1.1129834640
     C    -4.8748018446  -10.7990252333    0.3758623099
     O    -5.7739621768  -12.9902311403    3.0930252163
     C    -6.2063081638  -12.9569527156    4.4539455623
     C    -6.3590811276  -14.3860772389    4.9273531784
     C    -5.0384472729  -15.1516216157    4.9433763074
     N    -5.2214524475  -16.5300685307    5.3886698775
     C    -5.3701091323  -16.6736914739    6.8375117945
     C    -4.0456235602  -16.5750337069    7.5845677984
     O    -3.1159515289  -17.5307159407    7.0980996023
     C    -2.8831344967  -17.3354470478    5.7114960844
     C    -4.1841255468  -17.4507102553    4.9273124046
     H    -0.6263757209   -0.8197699894    3.2915465651
     H    -2.2437649035   -2.1355302718    1.9822042366
     H    -1.9166805857    2.7918213393    1.3229232493
     H    -5.1124462329    1.5554753776   -1.6481039698
     H    -5.4723171514   -0.9000422449   -1.4331038045
     H    -3.1665914773   -4.1519113570   -2.5076427617
     H    -2.8598228923   -2.4234593354   -2.1608374240
     H    -4.4501663091   -2.9582608547   -2.7291473768
     H    -4.9453430383   -6.7339482537    1.4882964105
     H    -4.4213140943   -8.5726518830   -0.9154952418
     H    -5.5139662925   -8.4524095767    2.7504844886
     H    -5.9961386965  -10.4496133407    4.0645504886
     H    -5.0425547883  -12.9268048006    0.6757701239
     H    -4.5621616097  -10.8945742459   -0.6614570022
     H    -7.1605220496  -12.4195616878    4.5211087251
     H    -5.4640608169  -12.4205349885    5.0605685914
     H    -7.0781095692  -14.9110286864    4.2872059943
     H    -6.7934676358  -14.3476498193    5.9336046582
     H    -4.3033223982  -14.5882937828    5.5454790591
     H    -4.6405607839  -15.1846301514    3.9233122793
     H    -5.8093356034  -17.6611587311    7.0359983706
     H    -6.0714364311  -15.9223075612    7.2160907379
     H    -4.1849950172  -16.7856770943    8.6498892722
     H    -3.6190853988  -15.5629013268    7.4884702016
     H    -2.1713213583  -18.1073249319    5.4009792652
     H    -2.4163656299  -16.3497234614    5.5466254304
     H    -4.5668426048  -18.4741835179    5.0476644702
     H    -4.0014073388  -17.2857277303    3.8592058398
