71
-2.1741318313683914e+03 frame 62   xyz file generated by TeraChem
    Cl    -1.4050267761    2.3463957775    4.6065888767
     C    -2.4362150426    1.4284391647    3.5466416501
     C    -2.3542457740    0.0193193282    3.5831937395
     C    -3.1609477980   -0.7268274622    2.7605710450
     C    -4.0691729140   -0.0949286367    1.8783768780
     C    -4.1304567119    1.3304007778    1.8396249192
     C    -3.2955670250    2.0823433120    2.7013227027
     N    -4.9524833804    2.0173284760    1.0005604808
     C    -5.7207919728    1.3246901176    0.1905323779
     C    -5.7567926575   -0.0866246459    0.1430991547
     C    -4.9341949173   -0.7848778366    0.9892002202
     N    -4.9425848576   -2.2047017482    0.9707623410
     N    -5.2865893593   -2.8949381823    2.0904054579
     N    -5.2172910894   -4.1462197962    1.8012583300
     C    -4.8310383040   -4.2986253113    0.5020038391
     C    -4.6480448235   -3.0384993502   -0.0547837784
     C    -4.2208455866   -2.5892098839   -1.4021668498
     C    -4.6299568525   -5.6164025614   -0.1291798032
     O    -4.2899958412   -5.6882510323   -1.3122486705
     C    -4.8420485095   -6.7898460742    0.7227647832
     C    -4.6247908683   -8.0303589066    0.2340050332
     C    -4.7647718102   -9.2970203209    0.9259836411
     C    -5.2110145127   -9.4078296274    2.2533635330
     C    -5.3229006482  -10.6387910281    2.8819303753
     C    -4.9829652077  -11.8089675951    2.1862587732
     C    -4.5370188486  -11.7204336800    0.8596404438
     C    -4.4342739525  -10.4856837358    0.2464015926
     O    -5.0553632499  -13.0505242839    2.7059398513
     C    -5.5061613598  -13.2023860201    4.0525002099
     C    -5.4851953908  -14.6784831004    4.3881086002
     C    -4.0778921097  -15.2692568889    4.3575840164
     N    -4.0791802199  -16.7029212394    4.6345227123
     C    -4.2290343669  -17.0388656607    6.0464101250
     C    -2.9620941597  -16.8079978394    6.8768647085
     N    -1.8380678672  -17.5063981375    6.2723768088
     C    -1.6313106077  -17.1783512293    4.8697445542
     C    -2.9252563866  -17.4098959413    4.0893368862
     C    -1.0310429844  -18.4038604742    6.8945071987
     O    -0.0972138861  -18.9589036727    6.3079698333
     C    -1.3125476095  -18.7062210292    8.3507282744
     H    -1.6552135886   -0.4634920308    4.2580711967
     H    -3.1031699034   -1.8095161473    2.7898109128
     H    -3.3545046099    3.1649228097    2.6668995563
     H    -6.3709149635    1.8920109071   -0.4728929973
     H    -6.4314723627   -0.5990990751   -0.5344142475
     H    -3.6453972935   -3.3833137519   -1.8783933138
     H    -3.6200109732   -1.6774151561   -1.3411045979
     H    -5.0914745491   -2.3793646488   -2.0344782283
     H    -5.1610513035   -6.6133435907    1.7450249042
     H    -4.2960918017   -8.0921647019   -0.8042194421
     H    -5.4803196007   -8.5160120731    2.8124140920
     H    -5.6733821511  -10.6817426910    3.9070181393
     H    -4.2777441564  -12.6340756406    0.3327781454
     H    -4.0879370310  -10.4285042375   -0.7830938479
     H    -6.5211730969  -12.7962302869    4.1457118565
     H    -4.8455023154  -12.6382690159    4.7247801679
     H    -6.1262684396  -15.2240341952    3.6854331194
     H    -5.9318208309  -14.7893033874    5.3838694385
     H    -3.4319795002  -14.6905479434    5.0420149112
     H    -3.6633284215  -15.1302070542    3.3533257265
     H    -4.4963778868  -18.1022122688    6.1145247324
     H    -5.0557453744  -16.4653025856    6.4780740702
     H    -3.1231531083  -17.1556354915    7.8975546270
     H    -2.7271760361  -15.7351595448    6.9272422564
     H    -0.8242648075  -17.8077670974    4.4927027733
     H    -1.3176155254  -16.1275599631    4.7889793553
     H    -3.1514133504  -18.4853285056    4.1056531418
     H    -2.7863105897  -17.1151059379    3.0434070517
     H    -1.2549997651  -17.8056196583    8.9714942729
     H    -0.5624047971  -19.4205938261    8.6926416815
     H    -2.3069441859  -19.1438954474    8.4892302006
