24
-6.3002513185043733e+02 frame 23   xyz file generated by TeraChem
     O     0.8659335354    0.1019191061    0.1868976288
     N     2.2351676103    0.0588970199    0.1256781293
     C     2.7997560359    0.8797137778    0.9385832905
     C     4.2696884016    0.9757910548    1.0140949613
     C     5.2569549210    0.2919349623    0.3166602159
     C     6.5924219503    0.5893365884    0.5942983344
     C     6.9250199131    1.5522253962    1.5510975396
     C     5.9322289178    2.2397208934    2.2522084700
     C     4.6006201483    1.9463204835    1.9787019582
     C     3.3536134086    2.4866243319    2.5360925443
     C     2.2575342717    1.8462084529    1.9116887111
     C     0.9514604543    2.1786607170    2.2622354530
     C     0.7500224810    3.1552164412    3.2406905438
     C     1.8323163741    3.7859893174    3.8557370717
     C     3.1445368198    3.4565367974    3.5082312318
     H     0.5880389718   -0.5571205433   -0.4685778002
     H     4.9948213664   -0.4559645625   -0.4265994443
     H     7.3817101372    0.0667584201    0.0607842276
     H     7.9707615920    1.7690836624    1.7522564406
     H     6.1998659156    2.9872640016    2.9946587494
     H     0.1075495090    1.6920651507    1.7881207924
     H    -0.2631939022    3.4256098319    3.5251439131
     H     1.6527718472    4.5429579555    4.6146068466
     H     3.9829279553    3.9518218801    3.9913916178
