50
-1.6960830117580053e+03 frame 99   xyz file generated by TeraChem
    Cl     3.4344474656   -0.0732931861   -0.1454934990
     C     1.7539524471   -0.5229646725   -0.1993820912
     C     1.4156646985   -1.8832466507   -0.0294389978
     C     0.0965702886   -2.2612997939   -0.0624596422
     C    -0.9227225696   -1.3006478841   -0.2668013356
     C    -0.5655945558    0.0684914682   -0.4554350609
     C     0.8000916768    0.4394122772   -0.4099952026
     N    -1.4775616325    1.0510684170   -0.6889376097
     C    -2.7455335414    0.7103682394   -0.7402558218
     C    -3.2227701005   -0.6058532376   -0.5549768271
     C    -2.3095024637   -1.6008009657   -0.3168655633
     N    -2.7525355780   -2.9346053991   -0.1175660816
     N    -2.4949355515   -3.5627448285    1.0591870434
     N    -3.0139042695   -4.7376604764    0.9838268422
     C    -3.6142482578   -4.9008622262   -0.2303291403
     C    -3.4534031453   -3.7304214151   -0.9614530805
     C    -3.8674119698   -3.3387140926   -2.3311437504
     C    -4.2885883640   -6.1529503317   -0.6339518742
     O    -4.8183195700   -6.2323168103   -1.7477010014
     C    -4.2807519283   -7.2424358757    0.3358335919
     C    -4.8802379822   -8.4215603802    0.0355685481
     C    -4.9807826261   -9.6070734250    0.8475373792
     C    -5.6616525303  -10.7320874365    0.3429244570
     C    -5.7959081776  -11.8991507373    1.0685899338
     C    -5.2431959012  -12.0086595465    2.3691329926
     C    -4.5543777330  -10.8771781065    2.8831684636
     C    -4.4320601133   -9.7213853377    2.1419926563
     N    -5.3661146243  -13.1511410843    3.0986976758
     C    -6.0841356674  -14.2857858056    2.5556655140
     C    -4.8103102994  -13.2290634884    4.4344696747
     H     2.1985535629   -2.6185197242    0.1244905135
     H    -0.1662899082   -3.3048873515    0.0720167938
     H     1.0592213784    1.4835234131   -0.5486859454
     H    -3.4604313411    1.5093585812   -0.9280043506
     H    -4.2871906036   -0.8132440057   -0.5827018639
     H    -4.1307316323   -4.2379369261   -2.8875601148
     H    -3.0650107368   -2.8019661741   -2.8468923217
     H    -4.7463209147   -2.6846359606   -2.3030018917
     H    -3.7858573124   -7.0668947149    1.2857244318
     H    -5.3484208992   -8.4832462083   -0.9481051759
     H    -6.0979288730  -10.6786439653   -0.6526085955
     H    -6.3321055354  -12.7332595113    0.6306913395
     H    -4.1137228329  -10.9137902015    3.8730531977
     H    -3.8954624488   -8.8820208932    2.5768787548
     H    -5.6228753359  -14.6485323800    1.6279488831
     H    -7.1320788815  -14.0372316322    2.3416500872
     H    -6.0679042427  -15.0976452684    3.2829123589
     H    -5.2554945648  -12.4801365807    5.1025471246
     H    -3.7230799374  -13.0789132516    4.4280344085
     H    -5.0139006410  -14.2174417420    4.8470139042
