45
-1.8989936569407541e+03 frame 55   xyz file generated by TeraChem
    Cl     2.2281115952    0.9933434536    1.6502837597
     C     0.7267011786    0.2800974213    1.1353762071
     C     0.5728255861   -1.1188302540    1.2485204601
     C    -0.6039926328   -1.7047598031    0.8533893153
     C    -1.6601812788   -0.9187063227    0.3334648149
     C    -1.4847345144    0.4925796087    0.2086535592
     C    -0.2664702061    1.0786386889    0.6290986015
     N    -2.4339848263    1.3187145962   -0.3093627316
     C    -3.5624167048    0.7799512683   -0.7122182887
     C    -3.8578219028   -0.5986610589   -0.6298059031
     C    -2.9073743239   -1.4363249435   -0.1049396791
     N    -3.1746227916   -2.8273045655   -0.0052022200
     N    -3.1586259771   -3.4359455975    1.2116855851
     N    -3.4549644548   -4.6722374095    1.0224260846
     C    -3.6705525758   -4.8951029788   -0.3058658828
     C    -3.4909589019   -3.6989251293   -0.9909268061
     C    -3.5685697461   -3.3505263164   -2.4302218755
     C    -4.0174928124   -6.2157701194   -0.8522894034
     O    -4.2340430177   -6.3565186414   -2.0551084171
     C    -4.0808873808   -7.3319708656    0.1085908561
     C    -4.4185570017   -8.5629454635   -0.3176657172
     C    -4.5184293390   -9.7803599970    0.4795339265
     C    -4.2099730838   -9.8293723638    1.8486085341
     C    -4.3142300806  -11.0185100432    2.5559961521
     C    -4.7317988371  -12.1794234110    1.9051705759
     C    -5.0449418180  -12.1514082645    0.5461941442
     C    -4.9365462871  -10.9607821960   -0.1569876880
     C    -4.8204280456  -13.4842588486    2.6356882004
     F    -4.6737597963  -13.3432178007    3.9629035826
     F    -6.0018163629  -14.0943917743    2.4241541408
     F    -3.8721606463  -14.3496091491    2.2215333282
     H     1.3844841171   -1.7203898365    1.6442333303
     H    -0.7251421394   -2.7787639594    0.9433158114
     H    -0.1474867567    2.1525982670    0.5340117354
     H    -4.3093352497    1.4561220453   -1.1239950927
     H    -4.8205449487   -0.9752843202   -0.9589934197
     H    -3.3672652617   -4.2406946205   -3.0269785458
     H    -2.8545835289   -2.5625364379   -2.6852268894
     H    -4.5730775575   -2.9954775899   -2.6888665336
     H    -3.8487201775   -7.1122160140    1.1458395179
     H    -4.6442195144   -8.6724550989   -1.3784823213
     H    -3.8804798762   -8.9346150457    2.3680178509
     H    -4.0719988573  -11.0437401219    3.6132418165
     H    -5.3726848302  -13.0555050032    0.0410651137
     H    -5.1782160866  -10.9372832391   -1.2164571089
