87
-2.6936075617616680e+03 frame 83   xyz file generated by TeraChem
    Cl    -5.9115161804   -2.3105595336    4.7101175268
     C    -4.7948068725   -2.8223096156    3.4690967281
     C    -5.1124681597   -3.9599996981    2.7043523757
     C    -4.2371758681   -4.3674461420    1.7238009444
     C    -3.0333220107   -3.6701048973    1.4704885606
     C    -2.7239288376   -2.5237018915    2.2601830185
     C    -3.6372278782   -2.1152915162    3.2642265031
     N    -1.5897746536   -1.7819177712    2.1159193032
     C    -0.7515131360   -2.1834140219    1.1767587463
     C    -0.9347821878   -3.2837207569    0.3322276653
     C    -2.0867617791   -4.0612995572    0.4535298366
     N    -2.3084168352   -5.1419335223   -0.3271350960
     C    -1.4288751263   -5.5628087165   -1.3974185108
     C    -1.9530172018   -6.8739179084   -1.9892476301
     N    -1.2418577813   -7.3961566258   -3.1404688352
     C     0.1803045084   -7.6750880698   -2.9586244614
     C     0.4493404633   -8.7695538834   -1.9313030672
     C    -0.3582744121  -10.0289262208   -2.1748571494
     O     0.1111103746  -11.0136840633   -1.2561266584
     C    -0.6244474338  -12.1326106528   -1.0667532284
     C    -0.1219510459  -13.0146494079   -0.0760671144
     C    -0.8073654495  -14.1594198073    0.2278984295
     C    -2.0267199841  -14.4823590591   -0.4205664807
     C    -2.5276152915  -13.6030672887   -1.4290412185
     C    -1.7874739525  -12.4348434641   -1.7475081653
     C    -3.7704268306  -13.9060453314   -2.0686374730
     C    -4.4346672395  -15.0470586194   -1.6764165383
     C    -3.9483232723  -15.9269104188   -0.6881341935
     C    -2.7590283902  -15.6431687388   -0.0727349420
     O    -5.6350785337  -15.4419067087   -2.2277516352
     C    -6.0953006163  -14.8024878702   -3.3217130311
     C    -5.5233937722  -13.6773663859   -3.8087710144
     C    -4.3710549119  -12.9904568546   -3.1135088961
     C    -4.8203613889  -11.6551929616   -2.5199804611
     C    -5.5213270793  -11.6005212873   -1.3131135103
     C    -5.9033901383  -10.3803267937   -0.7644799786
     C    -5.5922086980   -9.1965650727   -1.4314948623
     C    -4.9157008795   -9.2370792261   -2.6508262287
     C    -4.5331363615  -10.4600768783   -3.1863297309
     C    -5.9193144762   -7.8705615540   -0.8244600251
     F    -6.8814860279   -7.9434709380    0.1073464828
     F    -4.8354266897   -7.3237441749   -0.2075343802
     F    -6.3143309994   -6.9721861125   -1.7435624605
     C    -6.0237682338  -13.1154705594   -5.0616821603
     O    -5.4537348073  -12.1731892557   -5.6083157699
     C    -7.2890115800  -13.7036605412   -5.6444965900
     C    -7.4484784308  -15.2117396728   -5.4113007126
     C    -7.2895405515  -15.4799745389   -3.9073511565
     C    -8.8385759142  -15.6596837492   -5.8591176179
     C    -6.3889824274  -15.9837588542   -6.2037668977
     H    -6.0319925833   -4.5047393414    2.8904922722
     H    -4.5010415268   -5.2535271849    1.1536222120
     H    -3.3911131657   -1.2403076085    3.8569171653
     H     0.1555576965   -1.5895759941    1.0606252139
     H    -0.1816377575   -3.5124573487   -0.4130692645
     H    -3.2203813741   -5.5731505630   -0.2992457507
     H    -0.4158274928   -5.6990156960   -0.9986978428
     H    -1.3718574012   -4.7949658785   -2.1848839211
     H    -2.9944141949   -6.7181663299   -2.2962021655
     H    -1.9701214480   -7.6360517235   -1.1997321965
     H    -1.3478608459   -6.7488184671   -3.9170680247
     H     0.7697040778   -6.7861669259   -2.6754543342
     H     0.5606904046   -8.0015772404   -3.9343099676
     H     0.2425802873   -8.4100094234   -0.9152263071
     H     1.5174100573   -9.0157200198   -1.9640094136
     H    -0.2348586361  -10.3958828361   -3.2036364484
     H    -1.4251017871   -9.8421592745   -2.0084548494
     H     0.8017001754  -12.7528320354    0.4317642225
     H    -0.4273885872  -14.8366848351    0.9891816428
     H    -2.1511571260  -11.7667422804   -2.5173965756
     H    -4.5308905136  -16.8091113952   -0.4420361166
     H    -2.3661127666  -16.3052688910    0.6948278104
     H    -3.6130130803  -12.7586449595   -3.8739330278
     H    -5.7594745325  -12.5202822901   -0.7845763534
     H    -6.4376569183  -10.3512517388    0.1801531807
     H    -4.6832584346   -8.3173772878   -3.1793760439
     H    -4.0108863666  -10.4941120114   -4.1376666985
     H    -7.3187430649  -13.4618565302   -6.7123457018
     H    -8.1296146426  -13.1751390148   -5.1681021423
     H    -7.2171365793  -16.5560213726   -3.7107310187
     H    -8.1809479417  -15.1207172036   -3.3709440774
     H    -9.6235017975  -15.1193980436   -5.3165850538
     H    -8.9770826975  -16.7328394055   -5.6802644737
     H    -8.9764554150  -15.4757700817   -6.9310839749
     H    -5.3719168072  -15.7048758937   -5.9058560929
     H    -6.4938381840  -15.7821411737   -7.2760448781
     H    -6.5031102639  -17.0627922434   -6.0478737381
