96
-2.5139392663348490e+03 frame 140   xyz file generated by TeraChem
    Cl   -14.1126154892  -15.5682801568    6.2785528843
     C   -12.8089328559  -14.4943602226    5.8363370639
     C   -12.0389050943  -14.8016279420    4.6991378459
     C   -11.0083836956  -13.9597283940    4.3484481426
     C   -10.7085065635  -12.8023535951    5.1024817075
     C   -11.5084068739  -12.4986617172    6.2429040302
     C   -12.5633399660  -13.3775035361    6.5943783810
     N   -11.3281521742  -11.4000464668    7.0290790921
     C   -10.3434956154  -10.5926339124    6.6770290929
     C    -9.4812817834  -10.7780878745    5.5902042725
     C    -9.6349352641  -11.8971424988    4.7717772942
     N    -8.8382137534  -12.1207990946    3.7011049422
     C    -7.6981338659  -11.2893313668    3.3726375027
     C    -7.0420502598  -11.7662311082    2.0864106928
     C    -5.8546833737  -10.8966099113    1.6987643768
     N    -5.2496103398  -11.3716932625    0.4627631292
     C    -4.1480433059  -10.5312052418    0.0016184820
     C    -2.8353688869  -10.8183901775    0.7252650448
     C    -2.3392825279  -12.2279433479    0.4785855480
     O    -1.1120801039  -12.3804777902    1.1875850685
     C    -0.4477767778  -13.5568498165    1.1003527131
     C    -0.9289350054  -14.6787574168    0.3841962212
     C    -0.1813516405  -15.8329915308    0.3587432507
     C     1.0581797559  -15.9325860309    1.0304241960
     C     1.5433311983  -14.7977273527    1.7541477774
     C     0.7649395166  -13.6215262206    1.7647344702
     C     2.7965242194  -14.8857938034    2.4412887049
     C     3.4775914663  -16.0789038938    2.3887543344
     C     3.0162520253  -17.2048986048    1.6706625494
     C     1.8258041962  -17.1251351339    1.0009291264
     O     4.6638989021  -16.2878328373    3.0636178276
     C     5.0571012311  -15.3816395448    3.9858917676
     C     4.4637491363  -14.1737215547    4.1187162799
     C     3.3849183398  -13.7016385514    3.1743704245
     C     3.9269856893  -12.6477218239    2.2103416896
     C     4.8000440620  -13.0015014048    1.1797467424
     C     5.2936743706  -12.0398923864    0.3013826330
     C     4.9354278182  -10.6938809327    0.4222558994
     C     4.0692053768  -10.3427627572    1.4639727497
     C     3.5749556583  -11.3021295103    2.3429968668
     C     5.4558698197   -9.6568447701   -0.5525619637
     C     4.3146299522   -9.0129084176   -1.3455485305
     C     6.2992209437   -8.5889339672    0.1501089272
     C     4.8732548384  -13.2965364129    5.2140493068
     O     4.2797202285  -12.2443051396    5.4408203267
     C     6.0721843470  -13.7099934514    6.0388142613
     C     6.2294314178  -15.2268290612    6.2104399305
     C     6.1979414904  -15.8713176349    4.8157008492
     C     7.5682941643  -15.5312165532    6.8808895772
     C     5.0936322557  -15.7805958261    7.0767518410
     H   -12.2610604356  -15.6853466205    4.1104516753
     H   -10.4352770836  -14.2057107432    3.4593187709
     H   -13.1622754010  -13.1378274537    7.4668724523
     H   -10.1994300496   -9.7130497353    7.3050696265
     H    -8.6965689692  -10.0530871627    5.4077789827
     H    -8.8489319372  -13.0399064921    3.2846743000
     H    -6.9655495287  -11.2921390305    4.1951699889
     H    -8.0379725871  -10.2524602375    3.2512204251
     H    -7.7858373685  -11.7543424682    1.2778244799
     H    -6.7054126910  -12.8049284717    2.2011974384
     H    -5.1027342432  -10.9344829498    2.4969405771
     H    -6.1780298379   -9.8404441817    1.6239223714
     H    -5.9689636195  -11.3675421609   -0.2568454388
     H    -4.3783014103   -9.4552466850    0.1039716211
     H    -4.0103644331  -10.7241503360   -1.0695170819
     H    -2.9433735991  -10.6593573711    1.8053270624
     H    -2.0782914401  -10.1060007766    0.3753407066
     H    -2.1719019294  -12.3962111118   -0.5946329542
     H    -3.0715011561  -12.9645415062    0.8300061770
     H    -1.8766160429  -14.6371115656   -0.1409996319
     H    -0.5471307418  -16.6981580276   -0.1895522832
     H     1.1025830763  -12.7344891425    2.2893302382
     H     3.6152545000  -18.1102518935    1.6764410626
     H     1.4503718195  -17.9794079704    0.4431524155
     H     2.6032208713  -13.2200509630    3.7754867330
     H     5.0930824720  -14.0418227575    1.0532483310
     H     5.9676771996  -12.3421811249   -0.4981200858
     H     3.7699444905   -9.3043690593    1.5908622241
     H     2.9069836336  -11.0041798109    3.1480403446
     H     6.1044357101  -10.1807719800   -1.2677638605
     H     3.6425591303   -8.4537500862   -0.6836107584
     H     3.7200693565   -9.7683678172   -1.8708746632
     H     4.7113810804   -8.3109883495   -2.0884454597
     H     5.7009666558   -8.0410007052    0.8875871791
     H     6.6817921765   -7.8638244428   -0.5774440406
     H     7.1529857736   -9.0353877819    0.6715828643
     H     6.0108389933  -13.2058904584    7.0094965007
     H     6.9608392022  -13.3111384609    5.5242414659
     H     6.1376391735  -16.9630949735    4.8943964099
     H     7.1335144910  -15.6438591336    4.2826538213
     H     8.4052047234  -15.1426153841    6.2886558072
     H     7.7065145157  -16.6125218659    7.0003199817
     H     7.6109248998  -15.0723217796    7.8753932472
     H     4.1121939506  -15.6077161214    6.6211072595
     H     5.0978929098  -15.3015812883    8.0625657814
     H     5.2135315302  -16.8603857888    7.2229904442
