84
-2.8163124815094634e+03 frame 76   xyz file generated by TeraChem
    Cl    -2.0236407841   -0.1654972788   -0.2524540045
     C    -0.2765469092   -0.1850396789   -0.2992162685
     C     0.4190864673    1.0200910523   -0.3057056497
     C     1.8098816807    0.9944169235   -0.3476583119
     C     2.5096493831   -0.2140616256   -0.3819841125
     C     1.7837724173   -1.4068377095   -0.3677519286
     C     0.3917057032   -1.4041787428   -0.3293185128
     C     4.0374996300   -0.2316284118   -0.4154877374
     C     4.5990697877    0.1366434282    0.9373973083
     C     5.2262093476    1.3132348099    1.1645041071
     O     5.4633566064    2.2159218596    0.1903625590
     C     5.2259663089    1.8637651467   -1.1217212442
     C     4.5909951266    0.6944174463   -1.4767541501
     C     4.4495039842    0.4077667337   -2.8704885143
     C     3.8255722452   -0.7819097193   -3.3251087114
     C     3.6972979804   -1.0362048231   -4.6762630559
     O     3.1191334659   -2.1434508850   -5.1975165057
     C     2.6182324621   -3.1189951251   -4.2892897231
     C     2.0502081597   -4.2670877057   -5.0969463831
     C     1.5313520822   -5.4033615950   -4.2065545850
     N     0.3692460441   -5.1152936014   -3.3725355788
     C    -0.8816312345   -4.9235366622   -4.0913364953
     C    -1.5773336338   -6.2622506930   -4.3143591498
     N    -2.7951665487   -6.0754612817   -5.0751726071
     C    -3.6206682032   -7.0954306237   -5.4087837932
     C    -3.3015836099   -8.4264138194   -5.1408646829
     C    -4.1958429054   -9.4395427900   -5.5054520823
     N    -5.3627893500   -9.2631481962   -6.0987100016
     C    -5.6952018808   -7.9736719129   -6.3879787125
     C    -4.8708517463   -6.8501474662   -6.0854773959
     C    -5.3083331512   -5.5621920328   -6.4698924839
     C    -6.5144307817   -5.3695378015   -7.1039201097
     C    -7.3252546242   -6.4874526554   -7.3744460284
     C    -6.9378548162   -7.7588562210   -7.0351828508
    Cl    -8.8569052204   -6.2352869211   -8.1739163505
     C     4.1860246085   -0.1088539505   -5.6313964516
     C     4.7931060681    1.0443633484   -5.2127128266
     C     4.9449049737    1.3389620656   -3.8332203194
     C     5.5719801923    2.5312197770   -3.3970582378
     C     5.7177456973    2.7936166414   -2.0609072387
     C     5.7297077174    1.7776489251    2.4913986724
     C     6.0285591899    0.6205567993    3.4562279258
     C     4.8389769375   -0.3467789359    3.4258746171
     C     4.4573124320   -0.8142925624    2.0394287936
     O     4.0072710326   -1.9422882100    1.8517222023
     C     6.2085033888    1.1757671054    4.8684280261
     C     7.3100280666   -0.1071749799    3.0350820838
     H    -0.1171701563    1.9635914389   -0.2816802618
     H     2.3536996078    1.9361840494   -0.3582557807
     H     2.3139203906   -2.3553255772   -0.3791779847
     H    -0.1639304312   -2.3368714419   -0.3225672025
     H     4.3414975268   -1.2635447033   -0.6350854518
     H     3.4433585746   -1.4886880207   -2.6006651001
     H     1.8492007070   -2.6590090338   -3.6536237735
     H     3.4315708970   -3.4700572976   -3.6383078212
     H     2.8399948985   -4.6630421735   -5.7475859779
     H     1.2542854344   -3.8933265179   -5.7527394420
     H     2.3429456351   -5.7327699387   -3.5440565380
     H     1.2882276580   -6.2622866617   -4.8423082897
     H     0.5536193307   -4.3067991796   -2.7878948454
     H    -0.7583507771   -4.4157165706   -5.0627818538
     H    -1.5331813387   -4.2858171079   -3.4823359018
     H    -1.7829379627   -6.7278678864   -3.3391246665
     H    -0.9127538558   -6.9412321394   -4.8638260196
     H    -3.1778984656   -5.1411137704   -5.0745954335
     H    -2.3786782026   -8.6907070978   -4.6376870074
     H    -3.9270720485  -10.4713588068   -5.2774400506
     H    -4.6882155501   -4.6891148974   -6.2886049441
     H    -6.8368197955   -4.3761566062   -7.3975912848
     H    -7.5585384899   -8.6216714606   -7.2533703336
     H     4.0665669980   -0.3382406568   -6.6862297986
     H     5.1715782954    1.7566871646   -5.9421178515
     H     5.9429865099    3.2343346273   -4.1386065053
     H     6.2061544354    3.6929790479   -1.6990652572
     H     4.9670124514    2.4402008807    2.9285750163
     H     6.6249522495    2.3908149869    2.3345958196
     H     3.9523590062    0.1566175228    3.8429744118
     H     5.0290767090   -1.2294782068    4.0459666086
     H     5.3043370313    1.6941422876    5.2090376728
     H     7.0426449296    1.8867889589    4.9003158322
     H     6.4259498972    0.3667093146    5.5752816185
     H     7.2406395189   -0.5014201903    2.0148406829
     H     7.5072769540   -0.9473540934    3.7104509076
     H     8.1688428848    0.5726700480    3.0773076350
